82
-123.52454945
C    -2.5308785363    -3.0797751662    -1.4919695399
C    -1.1777879159    -3.1418880303    -1.0662281307
C    -0.6720213156    -2.1010542984    -0.2389825631
C    -1.4812794734    -1.0317862405     0.0726686514
C    -2.8195970449    -0.9443105692    -0.3708191535
C    -3.3233400050    -1.9756035175    -1.1256278181
C     0.7221489307    -2.0987309211     0.2512341187
C     1.2441973643    -3.1476467156     1.0571484381
C     2.5995983046    -3.0761955862     1.4745458803
C     3.3775795228    -1.9577530396     1.1199964806
C     2.8578128522    -0.9198898425     0.3848348726
C     1.5184379393    -1.0168333931    -0.0520580220
C    -3.0433098382    -4.1168442684    -2.3005719932
C    -2.2476552937    -5.1536347952    -2.6982515902
C    -0.8982574593    -5.1897162996    -2.3165097817
C    -0.3741723413    -4.2082142624    -1.5216626394
C     0.4552099963    -4.2293699988     1.5015836309
C     0.9951665591    -5.2165029345     2.2785657229
C     2.3465661055    -5.1706874161     2.6520842360
C     3.1282790336    -4.1195527495     2.2644315460
C    -3.6280186490     0.2427793786    -0.0590435203
C    -3.6967860160     0.7636075407     1.2270514578
C    -4.4545146817     1.8896772088     1.4941351549
C    -5.1653610331     2.5389247958     0.4921550416
C    -5.0926678764     2.0067665195    -0.7936674944
C    -4.3443178343     0.8807719078    -1.0676516059
C     3.6448416406     0.2842001730     0.0872589699
C     3.6977388001     0.8234573335    -1.1937477893
C     4.4290394033     1.9669913080    -1.4413276058
C     5.1295399723     2.6208564632    -0.4303332321
C     5.0766975960     2.0699514383     0.8442207493
C     4.3515930022     0.9211183852     1.0997730749
O    -0.9619179131     0.0113393986     0.8306039338
O     0.9702088610     0.0306756615    -0.7820736288
P     0.0414886267     1.0085592964     0.0948791806
O     0.7004262118     1.9321934738     1.0054470045
O    -0.8020282724     1.6914414425    -1.0696415775
H    -4.3504342907    -1.9376829882    -1.4586673465
H     4.4054758001    -1.9123168641     1.4494197076
H    -4.0785204488    -4.0676007627    -2.6063013631
H    -2.6466871502    -5.9429714660    -3.3180354722
H    -0.2714201823    -5.9997555608    -2.6588064547
H     0.6675383633    -4.2375027244    -1.2413284315
H    -0.5879723362    -4.2659299759     1.2271786911
H     0.3795751159    -6.0383133111     2.6131818061
H     2.7582417720    -5.9642994657     3.2579735623
H     4.1647215972    -4.0632783517     2.5644770629
H    -3.1620392464     0.2789533631     2.0297446855
H    -4.4777759148     2.2540501847     2.5080413697
H    -5.6268012610     2.4781644177    -1.6053055162
H    -4.2929115907     0.5012264571    -2.0779875583
H     3.1710117415     0.3370755546    -2.0012397120
H     4.4464664931     2.3551178571    -2.4490538699
H     5.5971921067     2.5346209208     1.6656423343
H     4.3095032577     0.5277321169     2.1049251999
H    -0.6405792819     2.6333258312    -1.0630554539
C    -6.0001578419     3.7851176018     0.7409388686
C     5.9017299934     3.8900107580    -0.7539425021
C    -5.9791425157     4.2273519547     2.2064978196
H    -6.5907414682     5.1197807930     2.3244226557
H    -6.3856173445     3.4541840351     2.8543677311
H    -4.9687437469     4.4681806285     2.5282630328
C    -7.4568044709     3.4999647721     0.3483166951
H    -7.8471676710     2.6688056106     0.9319985173
H    -8.0742150643     4.3754108973     0.5385212544
H    -7.5422915526     3.2464223218    -0.7046223712
C    -5.4460677488     4.9342679758    -0.1133391211
H    -5.4924990415     4.6990896777    -1.1730832012
H    -6.0216995522     5.8411843613     0.0599332329
H    -4.4078922381     5.1288128495     0.1479543857
C     6.6078510469     4.4801205918     0.4696595436
H     7.3326217062     3.7801826721     0.8791342050
H     7.1408265712     5.3837791317     0.1799807357
H     5.8911308308     4.7460728905     1.2428457859
C     4.9218084931     4.9414684019    -1.2936117418
H     4.4476067791     4.6064148158    -2.2118953484
H     4.1426400139     5.1372536513    -0.5600579129
H     5.4461176503     5.8723475667    -1.5005051983
C     6.9661728052     3.5754414021    -1.8147400661
H     6.5155381140     3.2076298666    -2.7322764732
H     7.5363553642     4.4716509714    -2.0507999662
H     7.6528516241     2.8168147989    -1.4446417653
