82
-123.52357463
C    -2.4168415823    -2.9301300003    -1.6188528616
C    -1.0845469378    -2.9413423010    -1.1283173293
C    -0.6763682270    -1.9085864546    -0.2372389117
C    -1.5536285181    -0.8955376999     0.0667317261
C    -2.8753285327    -0.8616531491    -0.4295408218
C    -3.2864012041    -1.8883389821    -1.2446787558
C     0.6876770975    -1.8791259911     0.3287704357
C     1.1847414537    -2.9772312905     1.0851944122
C     2.5437895001    -2.9687613400     1.4908228061
C     3.3573346521    -1.8756645733     1.1396580460
C     2.8553014329    -0.7755958705     0.4872217033
C     1.4904449482    -0.7790964747     0.1139259832
C    -2.8348522440    -3.9562779584    -2.4929716414
C    -1.9678329939    -4.9337419219    -2.8915456273
C    -0.6385845444    -4.9173308419    -2.4442081676
C    -0.2056029473    -3.9455129189    -1.5850471393
C     0.3661206599    -4.0545925281     1.4841968417
C     0.8793798233    -5.0879540034     2.2181068732
C     2.2326176545    -5.0974319661     2.5875312838
C     3.0453651340    -4.0571965585     2.2354767333
C    -3.7759061381     0.2490578219    -0.0917179931
C    -3.9142996741     0.7023718117     1.2166036066
C    -4.7825239538     1.7335593766     1.5115868215
C    -5.5426255440     2.3567910798     0.5241988092
C    -5.3916070711     1.9028083558    -0.7807669602
C    -4.5277285983     0.8666151041    -1.0845621582
C     3.7525865714     0.3390942418     0.1382946308
C     4.9476028841     0.0662299298    -0.5227760442
C     5.8206056838     1.0831204615    -0.8486088201
C     5.5449908192     2.4098207601    -0.5238603575
C     4.3526343648     2.6703434170     0.1399464415
C     3.4677330701     1.6571250483     0.4673618773
O    -1.1118931979     0.1490057887     0.8715589890
O     0.9761522030     0.3160852293    -0.5647030967
P    -0.1497549107     1.2036023430     0.1676409823
O     0.2999890157     2.2482472040     1.0761862432
O    -0.9415429270     1.7299566063    -1.1092493696
H    -4.2999909721    -1.8964147092    -1.6183967891
H     4.3993021184    -1.8895006332     1.4249879266
H    -3.8552594736    -3.9459144562    -2.8481843276
H    -2.2944854649    -5.7148948344    -3.5619618013
H     0.0462357941    -5.6785866440    -2.7873080166
H     0.8221377753    -3.9345255825    -1.2566855518
H    -0.6790550454    -4.0485025271     1.2146846250
H     0.2405267976    -5.9036628291     2.5226469823
H     2.6216825270    -5.9258588466     3.1608471902
H     4.0846838400    -4.0443183251     2.5304298329
H    -3.3497150082     0.2339416697     2.0082522360
H    -4.8659696382     2.0524984943     2.5395211716
H    -5.9490719768     2.3520103254    -1.5867347550
H    -4.4205516140     0.5436434786    -2.1101576427
H     5.1832110701    -0.9525297631    -0.7971848069
H     6.7338608986     0.8297633601    -1.3664826115
H     4.0880517378     3.6763982978     0.4209610259
H     2.5587072535     1.8986181900     0.9939068639
H    -0.9049679084     2.6846983543    -1.1295471991
C    -6.4919536045     3.4808283027     0.9071872085
C     6.5430666634     3.4938708228    -0.8994224775
C    -5.6878166870     4.6200691687     1.5489100120
H    -5.1710208387     4.2858250938     2.4439072289
H    -4.9452851804     4.9972598308     0.8487424818
H    -6.3509256644     5.4379513873     1.8232914989
C    -7.5218860821     2.9415556468     1.9103264251
H    -8.2249272915     3.7256749920     2.1835619477
H    -8.0787060664     2.1164733426     1.4706546867
H    -7.0424864255     2.5836589196     2.8169963895
C    -7.2512507252     4.0493843301    -0.2948081296
H    -6.5666977417     4.4690336374    -1.0283453713
H    -7.8603212605     3.2843609013    -0.7709239091
H    -7.9137685273     4.8454440091     0.0392261195
C     6.7290428873     3.4974363859    -2.4234554672
H     7.1183087122     2.5471200799    -2.7781069547
H     5.7770751169     3.6811589867    -2.9172160728
H     7.4262556507     4.2805959041    -2.7143357753
C     7.8841631838     3.1977776047    -0.2129928592
H     7.7550635072     3.1713063135     0.8670219809
H     8.2899468897     2.2413469206    -0.5308291801
H     8.6087314436     3.9724820119    -0.4555088384
C     6.0860888228     4.8907752591    -0.4711833007
H     5.1470826542     5.1586661830    -0.9496643964
H     5.9655101426     4.9490011994     0.6079265796
H     6.8350255460     5.6235067098    -0.7658358476
