82
-123.5244672
C    -2.5361173574    -3.0852520325    -1.4863652792
C    -1.1815250583    -3.1409034370    -1.0645336518
C    -0.6774146093    -2.0958261493    -0.2416878359
C    -1.4897343856    -1.0288017802     0.0691364502
C    -2.8299314732    -0.9480564942    -0.3698836550
C    -3.3319495739    -1.9833473156    -1.1203214638
C     0.7176481536    -2.0875730336     0.2457902554
C     1.2430935997    -3.1327434486     1.0543092550
C     2.5990881063    -3.0573386977     1.4688446119
C     3.3745037996    -1.9393921957     1.1074345497
C     2.8516815977    -0.9049856875     0.3693698607
C     1.5108878833    -1.0048615402    -0.0627339546
C    -3.0467879758    -4.1266823540    -2.2904587504
C    -2.2481412516    -5.1613835520    -2.6876306262
C    -0.8974385599    -5.1909904913    -2.3099721829
C    -0.3749494347    -4.2052276478    -1.5193685133
C     0.4569966947    -4.2145012326     1.5037541460
C     1.0002526111    -5.1978581811     2.2832108335
C     2.3521738743    -5.1480228337     2.6543469991
C     3.1311880454    -4.0967775033     2.2616045482
C    -3.6421373259     0.2360935913    -0.0567493108
C    -3.7084690641     0.7571621611     1.2293900905
C    -4.4694489124     1.8804723595     1.4986620781
C    -5.1859480433     2.5267836321     0.4987999631
C    -5.1155545884     1.9944614107    -0.7870846243
C    -4.3641925789     0.8709370547    -1.0631805054
C     3.6409568837     0.2950265702     0.0613729017
C     4.3607196679     0.9318208000     1.0676583261
C     5.0925495317     2.0685135022     0.7954097309
C     5.1449354967     2.6128987921    -0.4859825397
C     4.4315908449     1.9641005547    -1.4861829951
C     3.6899420176     0.8272362315    -1.2205724019
O    -0.9713792166     0.0188066090     0.8215636625
O     0.9587364905     0.0389523263    -0.7949456333
P     0.0252233649     1.0165215434     0.0771805375
O     0.6799378530     1.9506065790     0.9800240515
O    -0.8243461960     1.6859115037    -1.0909420697
H    -4.3603388196    -1.9505778196    -1.4499018659
H     4.4035297858    -1.8919069606     1.4330448921
H    -4.0831341229    -4.0825925879    -2.5931077691
H    -2.6458873644    -5.9540948484    -3.3039251229
H    -0.2683736922    -5.9994240564    -2.6519761273
H     0.6676723054    -4.2295152690    -1.2419338657
H    -0.5865919104    -4.2540924362     1.2313348973
H     0.3868709705    -6.0197534099     2.6216554147
H     2.7664039677    -5.9386823358     3.2623499819
H     4.1680475330    -4.0374450694     2.5596138165
H    -3.1690588125     0.2748314542     2.0303656753
H    -4.4906216643     2.2451110664     2.5125071080
H    -5.6538257986     2.4638441201    -1.5971636385
H    -4.3148720531     0.4910905425    -2.0735108782
H     4.3216968279     0.5449030487     2.0753793391
H     5.6276412440     2.5405147900     1.6057351838
H     4.4401663924     2.3378061805    -2.4973812826
H     3.1527666835     0.3415815663    -2.0216542802
H    -0.6739463318     2.6296067981    -1.0873911062
C    -6.0233021744     3.7708008177     0.7498861010
C     5.9604397029     3.8724208216    -0.7313505976
C    -6.0025399373     4.2107366627     2.2161502453
H    -6.6173548301     5.1006782109     2.3360966682
H    -6.4055282529     3.4349465604     2.8630744894
H    -4.9927874927     4.4548599701     2.5374415538
C    -7.4796814548     3.4840909876     0.3574945824
H    -7.8688161098     2.6520253637     0.9406880508
H    -8.0980736915     4.3586431471     0.5486261135
H    -7.5653890310     3.2313394033    -0.6955978853
C    -5.4712802951     4.9220638273    -0.1029111339
H    -4.4331667818     5.1174804241     0.1579918134
H    -5.5181433944     4.6883203161    -1.1629720263
H    -6.0479060195     5.8279981525     0.0721697398
C     5.9093181938     4.3352535293    -2.1899909484
H     4.8904975002     4.5684889695    -2.4902333992
H     6.5082100291     5.2366628312    -2.3054428205
H     6.3135820349     3.5766126981    -2.8563403628
C     7.4270490123     3.5998109074    -0.3679875790
H     7.5316453248     3.3242550475     0.6775820755
H     7.8201641279     2.7872205705    -0.9756610660
H     8.0291247862     4.4881359800    -0.5479001104
C     5.4065854899     5.0016689020     0.1488928683
H     5.4913517790     4.7590176160     1.2042299442
H     5.9545073177     5.9238679198    -0.0344542792
H     4.3558527960     5.1711895198    -0.0761185547
