102
-166.33983664
C     4.2599991464    -3.7489128569     1.3705327299
C     3.0158405438    -4.3163232563     0.9860488930
C     2.1092413564    -3.5315993550     0.2196681347
C     2.4327920248    -2.2238033608    -0.0672515036
C     3.6409420563    -1.6306620083     0.3655747502
C     4.5412044863    -2.4061081426     1.0515215199
C     0.7973081029    -4.0412125522    -0.2326525065
C     0.6593883582    -5.1934761964    -1.0563325263
C    -0.6427543671    -5.5890338501    -1.4651086786
C    -1.7530699834    -4.7901419022    -1.1279530095
C    -1.6117826546    -3.6471825555    -0.3815677739
C    -0.3253793489    -3.3165165695     0.0999311024
C     5.1706243993    -4.5326130404     2.1109622040
C     4.8543995669    -5.8071021320     2.4879110737
C     3.6033333200    -6.3473294416     2.1554758789
C     2.7046156440    -5.6205608594     1.4246848121
C     1.7669519851    -5.9288058204    -1.5280981819
C     1.5912684798    -7.0367427480    -2.3102208644
C     0.3025645364    -7.4614816605    -2.6651842904
C    -0.7885275570    -6.7465053333    -2.2593068125
C     3.8099546512    -0.1834151492     0.1689288516
C     3.5717861330     0.4156925266    -1.0648735085
C     3.5153085951     1.7909715884    -1.1723364275
C     3.7011301918     2.5948020277    -0.0525859862
C     4.0305921701     1.9987262029     1.1600020301
C     4.0839311809     0.6232478160     1.2701226372
C    -2.6894943989    -2.6664777209    -0.1911567686
C    -3.3608476423    -2.1893693931    -1.3136915782
C    -4.2219222748    -1.1171365650    -1.2092226780
C    -4.4403374945    -0.5041643356     0.0206628762
C    -3.8316246513    -1.0330895709     1.1538842688
C    -2.9613581815    -2.1002588088     1.0500565728
O     1.5313257749    -1.4326524453    -0.7728218749
O    -0.1807502689    -2.1755872429     0.8794912184
P     0.2725684589    -0.8843933511     0.0346617125
O    -0.7189661492    -0.2337836695    -0.8090185772
O     0.8547519569     0.0193493335     1.2063031782
H     5.4772849262    -1.9761180124     1.3772533220
H    -2.7297372126    -5.0716477681    -1.4940360482
H     6.1213843846    -4.0974416041     2.3832419750
H     5.5563400932    -6.3996908408     3.0556557872
H     3.3512643204    -7.3444314021     2.4846289693
H     1.7400094347    -6.0391643848     1.1821028880
H     2.7625857303    -5.6030797072    -1.2689594391
H     2.4488043580    -7.5903285804    -2.6628226514
H     0.1819827965    -8.3454740423    -3.2736422121
H    -1.7843612987    -7.0489387144    -2.5494743498
H     3.4062313118    -0.1992130735    -1.9363204017
H     3.2913631769     2.2513138532    -2.1236183677
H     4.2025112180     2.6206390275     2.0269264903
H     4.2838317669     0.1648281171     2.2275940489
H    -3.1585330912    -2.6287738744    -2.2793745317
H    -4.7114139805    -0.7265194037    -2.0896248419
H    -4.0150666104    -0.5760737982     2.1163020319
H    -2.4770422463    -2.4886835718     1.9337179686
H     0.3067358546     0.7953595568     1.3193229020
C     3.4554095425     4.0516718626    -0.1263392351
C     4.5157648502     4.9606360720    -0.2116375781
C     2.1274046382     4.5019066309    -0.0846929305
C     4.2390641469     6.3627240941    -0.2610797451
C     5.8685210296     4.5343121809    -0.2607166694
C     1.8581927688     5.9051848128    -0.1268518891
C     1.0299445122     3.6069272668     0.0203128574
C     5.3272127231     7.2684825602    -0.3506927400
C     2.9192473516     6.8014135927    -0.2174113001
C     6.8838864468     5.4363846713    -0.3463774207
H     6.0739157599     3.4739130052    -0.2310194865
C     0.5096459528     6.3432144450    -0.0677301488
C    -0.2490148093     4.0678055266     0.0886813915
H     1.2278025870     2.5448469767     0.0373926508
C     6.6111063953     6.8200528783    -0.3907294054
H     5.1097977895     8.3266533960    -0.3870966419
H     2.7137728748     7.8625816021    -0.2502913540
H     7.9102827608     5.1014288524    -0.3831962101
H     0.3166744354     7.4060480698    -0.1072386864
C    -0.5135921475     5.4527597168     0.0405620225
H    -1.0754822340     3.3770413702     0.1702996255
H     7.4336534093     7.5170051245    -0.4590558840
H    -1.5381433593     5.7914834343     0.0892080271
C    -5.2609948149     0.7203618157     0.1076547130
C    -6.5043956857     0.6986442161     0.7549406335
C    -4.7725457105     1.9055026495    -0.4663108471
C    -7.2790161014     1.8979390827     0.8348244220
C    -7.0426239763    -0.4874578271     1.3193269070
C    -5.5623772154     3.0959791014    -0.3943068271
C    -3.5069770281     1.9744197671    -1.1084470651
C    -8.5335338680     1.8603291502     1.4960469648
C    -6.7916682517     3.0656220953     0.2571634365
C    -8.2526442223    -0.4828401740     1.9427526520
H    -6.4722956634    -1.4013258939     1.2399054491
C    -5.0689486719     4.2844705315    -0.9918607345
C    -3.0760544918     3.1340709165    -1.6790121594
H    -2.8782039732     1.0968822817    -1.1355291223
C    -9.0061373177     0.7057975908     2.0383715962
H    -9.1071770696     2.7746698447     1.5551255422
H    -7.3833655222     3.9693156954     0.3120483394
H    -8.6502254668    -1.3930435999     2.3679293627
H    -5.6774939032     5.1761387996    -0.9321158053
C    -3.8651230891     4.3017990531    -1.6254414695
H    -2.1172588668     3.1678136093    -2.1749489049
H    -9.9628138831     0.6854116603     2.5399152744
H    -3.4982707696     5.2081696722    -2.0856467757
