58
-98.18926939
C    -2.7659783439    -2.1359471525    -1.0592242718
C    -1.3626872248    -2.1980818010    -0.8524320324
C    -0.7291385065    -1.1532539696    -0.1238983507
C    -1.4742289184    -0.0752189095     0.3029801399
C    -2.8671394518     0.0123847419     0.0694267815
C    -3.4871003504    -1.0236012398    -0.5854704570
C     0.7259669212    -1.1542083147     0.1332413881
C     1.3720138737    -2.1960608152     0.8531340571
C     2.7771004608    -2.1200718240     1.0443297900
C     3.4865285207    -1.0062063026     0.5557828184
C     2.8538695739     0.0228633794    -0.0985511582
C     1.4630817057    -0.0797357432    -0.3108399580
C    -3.4032111729    -3.1794214042    -1.7640723948
C    -2.6827614847    -4.2234485364    -2.2711330231
C    -1.2897691393    -4.2599312853    -2.1087214539
C    -0.6437034204    -3.2720752757    -1.4184614804
C     0.6663564217    -3.2718951978     1.4315550571
C     1.3262680248    -4.2499733481     2.1225644255
C     2.7201688803    -4.2000323293     2.2724494053
C     3.4277360341    -3.1541648433     1.7510410748
C    -3.6165943557     1.2084601966     0.4886885168
C    -3.4841090792     1.7314877836     1.7714443183
C    -4.1901270504     2.8624026161     2.1377567706
C    -5.0327787432     3.4846436385     1.2322241182
C    -5.1727808747     2.9680534464    -0.0449501808
C    -4.4707117529     1.8364014881    -0.4149754249
C     3.5795885097     1.2232145485    -0.5386443134
C     4.4229943499     1.8823481484     0.3506551527
C     5.0983790799     3.0220203021    -0.0423833438
C     4.9466281256     3.5120827207    -1.3285461604
C     4.1158629677     2.8564304322    -2.2210196585
C     3.4334929868     1.7194246475    -1.8301088515
O    -0.8485913422     0.9660491866     0.9691630006
O     0.7912187767     0.9645848672    -0.9394089750
P     0.1048071146     1.9609656353     0.1369474966
O     0.9718079180     2.7287105432     1.0037713392
O    -0.8278090864     2.8244712883    -0.8077242771
H    -4.5540200429    -0.9847881204    -0.7508676520
H     4.5537072978    -0.9566487341     0.7161634733
H    -4.4738009231    -3.1297081073    -1.9009239686
H    -3.1768213897    -5.0183023948    -2.8098100046
H    -0.7269438386    -5.0758903175    -2.5369807339
H     0.4290808351    -3.3024101288    -1.3063773427
H    -0.4075034364    -3.3112517502     1.3302588770
H     0.7740572563    -5.0674126975     2.5619433104
H     3.2252732383    -4.9862519528     2.8136966559
H     4.4987962940    -3.0948198942     1.8793865410
H    -2.8338368579     1.2449900225     2.4817459277
H    -4.0802425896     3.2607419738     3.1352889680
H    -5.5787496387     4.3707385020     1.5199233541
H    -5.8277160415     3.4502055060    -0.7559829144
H    -4.5706747778     1.4407031749    -1.4164099375
H     4.5231534005     1.5114481036     1.3597673102
H     5.7412472655     3.5337459867     0.6586931443
H     5.4721180671     4.4050447181    -1.6338518062
H     3.9967110080     3.2342412157    -3.2262557458
H     2.7925654791     1.2046463976    -2.5306245222
H    -1.3122800453     2.3290217575    -1.4690276773
