58
-98.18925245
C    -2.7673380131    -2.1726746357    -0.9790519640
C    -1.3544315236    -2.1576385443    -0.8536734620
C    -0.7286338982    -1.0564345961    -0.2017939743
C    -1.4905583529     0.0325870443     0.1647178078
C    -2.9000917195     0.0187125378     0.0527388941
C    -3.5122549839    -1.0874791420    -0.4788174012
C     0.7207264157    -1.0747078753     0.0836619571
C     1.3191687102    -2.1158313332     0.8490828447
C     2.7229695939    -2.0822853292     1.0621883231
C     3.4798400667    -1.0078706072     0.5562752379
C     2.8929865690     0.0247375781    -0.1333514753
C     1.5032397713    -0.0389862512    -0.3696886700
C    -3.3913507155    -3.2719222120    -1.6055244192
C    -2.6497768498    -4.2998837482    -2.1155438049
C    -1.2501311081    -4.2647957868    -2.0308566111
C    -0.6164102961    -3.2212358024    -1.4149636853
C     0.5697703707    -3.1473543590     1.4525204656
C     1.1856464357    -4.1256854674     2.1829794839
C     2.5781691339    -4.1215253157     2.3500346869
C     3.3279829228    -3.1164001980     1.8081950408
C    -3.7094282406     1.1501182072     0.5488477225
C    -4.5928257971     0.9477609911     1.6040270810
C    -5.3659789394     1.9919288910     2.0774808990
C    -5.2702572110     3.2454783400     1.4969895019
C    -4.4016593490     3.4487317322     0.4381934541
C    -3.6245760681     2.4072311372    -0.0365471211
C     3.6655537410     1.1892000173    -0.5900691502
C     4.5225734086     1.8374338394     0.2944562208
C     5.2422556931     2.9440612254    -0.1146904994
C     5.1211841312     3.4121652473    -1.4123758651
C     4.2762798695     2.7674888901    -2.2999033898
C     3.5500978382     1.6633213689    -1.8932468440
O    -0.8991012332     1.1372918146     0.7594557880
O     0.8819758655     1.0117664469    -1.0356366761
P     0.1882631351     2.0263849297     0.0013644837
O     1.0560170688     2.7530021682     0.9154377759
O    -0.6176334155     2.9419145941    -1.0202072829
H    -4.5902662988    -1.1144845534    -0.5473875387
H     4.5456346759    -0.9923913134     0.7320674057
H    -4.4689747928    -3.2769887085    -1.6831183313
H    -3.1331879482    -5.1369552789    -2.5970465453
H    -0.6721920448    -5.0691231394    -2.4611774436
H     0.4613795314    -3.1964342929    -1.3650612095
H    -0.5034381649    -3.1527993156     1.3410625539
H     0.5983795770    -4.9078142983     2.6407650086
H     3.0484143702    -4.9081954971     2.9212067992
H     4.3986065810    -3.0891636586     1.9505999842
H    -4.6607286273    -0.0303758653     2.0584876078
H    -6.0446642032     1.8273776143     2.9017309181
H    -5.8732608850     4.0612464579     1.8678412724
H    -4.3304186326     4.4232593041    -0.0226039781
H    -2.9586514354     2.5630907467    -0.8707317186
H     4.5997260457     1.4843990731     1.3119026490
H     5.8966245059     3.4468435691     0.5822952249
H     5.6823993945     4.2785367665    -1.7308151469
H     4.1817092933     3.1272542645    -3.3144600342
H     2.8978456809     1.1575175858    -2.5894909358
H    -0.2591576819     3.8276479000    -0.9873583934
