102
-166.33781993
C     4.2269639181    -3.7144151179     1.4303019902
C     2.9990495881    -4.2950678869     1.0141474612
C     2.1073242679    -3.5237883541     0.2171581500
C     2.4280548864    -2.2156070067    -0.0752900145
C     3.6129080286    -1.6059705029     0.4027106039
C     4.5000512124    -2.3677073877     1.1201432448
C     0.8028636360    -4.0403356392    -0.2470111551
C     0.6725570842    -5.2024264778    -1.0569290430
C    -0.6264726624    -5.6043894892    -1.4688284571
C    -1.7409002992    -4.8071813805    -1.1411526409
C    -1.6067371970    -3.6565099094    -0.4053254633
C    -0.3227502691    -3.3142971741     0.0713666358
C     5.1261694785    -4.4867437242     2.1960023685
C     4.8129350708    -5.7635256915     2.5676256921
C     3.5755428346    -6.3162438186     2.2057157366
C     2.6885484858    -5.6003876068     1.4502589067
C     1.7850003358    -5.9395663452    -1.5137653476
C     1.6166196592    -7.0552952513    -2.2862880764
C     0.3308962291    -7.4857585413    -2.6452594164
C    -0.7644742476    -6.7696006468    -2.2530540430
C     3.7659697612    -0.1536342563     0.2184635825
C     3.5786601163     0.4471708535    -1.0228768029
C     3.5276030981     1.8226337425    -1.1294393810
C     3.6633179154     2.6250345913    -0.0019946757
C     3.9241448733     2.0279479042     1.2261896267
C     3.9742638693     0.6521743796     1.3357598076
C    -2.6916171486    -2.6849160797    -0.2115352064
C    -2.9674603188    -2.1327946851     1.0349419425
C    -3.8487811755    -1.0762654721     1.1495432478
C    -4.4603093902    -0.5425681157     0.0205643429
C    -4.2358482541    -1.1399191657    -1.2154566744
C    -3.3665894437    -2.2046171642    -1.3301554045
O     1.5518420370    -1.4417790066    -0.8223442523
O    -0.1752003297    -2.1534547780     0.8254836902
P     0.2325355931    -0.8856088010    -0.0913376190
O    -0.7353334486    -0.3624814873    -1.0318297961
O     0.6849422561     0.1535335623     1.0145548958
H     5.4184415808    -1.9240464622     1.4762927149
H    -2.7157297702    -5.0962262286    -1.5060221045
H     6.0655644036    -4.0415265681     2.4904015111
H     5.5063720822    -6.3481827316     3.1535384576
H     3.3247082106    -7.3147857052     2.5311016280
H     1.7347407690    -6.0290363731     1.1842289755
H     2.7782951182    -5.6088048779    -1.2515103215
H     2.4774322858    -7.6104507449    -2.6282361480
H     0.2161390825    -8.3756003943    -3.2462138332
H    -1.7576782621    -7.0772358730    -2.5465036668
H     3.4556479877    -0.1671631189    -1.9013773942
H     3.3519626662     2.2844740083    -2.0896804501
H     4.0547706776     2.6481233414     2.1012485127
H     4.1361944623     0.1921255260     2.3012989118
H    -2.4789061564    -2.5254673010     1.9147219662
H    -4.0388065783    -0.6310744021     2.1159246119
H    -4.7256223150    -0.7423054478    -2.0924280715
H    -3.1593567625    -2.6331324423    -2.2995174752
H     1.2322343202    -0.1980715341     1.7180756797
C     3.4714748399     4.0891494838    -0.0987605842
C     4.5675656186     4.9392515848    -0.2830635326
C     2.1707182523     4.6029806204     0.0012521903
C     4.3560816136     6.3504945788    -0.3726268341
C     5.8939461971     4.4449763494    -0.3881931437
C     1.9674062789     6.0156658508    -0.0895532915
C     1.0396238729     3.7675707298     0.2010894492
C     5.4791868981     7.1969419147    -0.5585608842
C     3.0627833887     6.8541481594    -0.2753600367
C     6.9445530075     5.2913740773    -0.5665161826
H     6.0514324258     3.3777294527    -0.3246080977
C     0.6467154798     6.5233787097     0.0165984154
C    -0.2100359440     4.2966126084     0.3097212162
H     1.1780088794     2.6983846385     0.2663392746
C     6.7359328911     6.6842035884    -0.6520146433
H     5.3107090940     8.2625916899    -0.6245855182
H     2.9054859693     7.9219383750    -0.3435052003
H     7.9501749497     4.9044584356    -0.6454851023
H     0.5036547406     7.5922401130    -0.0594847957
C    -0.4107174884     5.6894757959     0.2122783905
H    -1.0593330238     3.6488355257     0.4666832317
H     7.5856059640     7.3361935836    -0.7935296476
H    -1.4137224447     6.0821332735     0.2954495873
C    -5.2907136609     0.6749878229     0.1223515201
C    -6.5613147065     0.6211842130     0.7106464487
C    -4.7796564028     1.8847728876    -0.3734732117
C    -7.3448125610     1.8134281064     0.8068428206
C    -7.1152670475    -0.5899926282     1.2017253411
C    -5.5748910732     3.0702453079    -0.2807021468
C    -3.4866737104     1.9814576391    -0.9543550901
C    -8.6287141086     1.7413514210     1.4059305082
C    -6.8345510455     3.0073935584     0.3078418041
C    -8.3526499277    -0.6175399582     1.7680301396
H    -6.5330196245    -1.4956658141     1.1130733085
C    -5.0537125860     4.2866294701    -0.7923090968
C    -3.0284134375     3.1685446412    -1.4404515141
H    -2.8593891083     1.1039890443    -1.0031674177
C    -9.1182663020     0.5623947205     1.8760729399
H    -9.2108536439     2.6494696514     1.4773493454
H    -7.4311755826     3.9069174492     0.3773444341
H    -8.7626874481    -1.5461683279     2.1381620179
H    -5.6653226156     5.1751890073    -0.7179012173
C    -3.8191410472     4.3339444004    -1.3623027757
H    -2.0469700958     3.2245005925    -1.8872561669
H   -10.0972840958     0.5161686424     2.3307506771
H    -3.4299496180     5.2626822084    -1.7546928209
