102
-166.33778036
C     4.3532529468    -3.6160741274     1.2886510468
C     3.1000747342    -4.2195081026     0.9997625515
C     2.1456127660    -3.4926527430     0.2344210075
C     2.4357811521    -2.2016712771    -0.1512673412
C     3.6520057292    -1.5670733111     0.1981873921
C     4.5953964097    -2.2883389059     0.8851261268
C     0.8117831387    -4.0346786946    -0.0985879660
C     0.6254789360    -5.2370779737    -0.8352844572
C    -0.6993545764    -5.6622816997    -1.1227646133
C    -1.7894588486    -4.8526205824    -0.7474633789
C    -1.6050261372    -3.6655891308    -0.0837085896
C    -0.2895302312    -3.2953301552     0.2700191473
C     5.3120547403    -4.3448383549     2.0241527361
C     5.0345681064    -5.5999431741     2.4868713255
C     3.7763333372    -6.1730416651     2.2501419558
C     2.8306892132    -5.5000290526     1.5271457529
C     1.7032362862    -5.9941976427    -1.3400697611
C     1.4816048555    -7.1476357887    -2.0403826902
C     0.1743174381    -7.5980760914    -2.2757306672
C    -0.8913131000    -6.8656553541    -1.8346792011
C     3.7861141287    -0.1278498939    -0.0793312397
C     3.4992543945     0.4010668813    -1.3343343088
C     3.4358999502     1.7681500861    -1.5150401787
C     3.6589034460     2.6336800788    -0.4497861640
C     4.0195098473     2.1075846936     0.7855772517
C     4.0815186025     0.7402232229     0.9695274416
C    -2.6796050227    -2.6914484089     0.1500112185
C    -2.8578604023    -2.0793725795     1.3862357877
C    -3.7415003948    -1.0273065051     1.5221290539
C    -4.4534416772    -0.5580563668     0.4237498328
C    -4.3233037892    -1.2141131243    -0.7960446453
C    -3.4514043575    -2.2742693305    -0.9306516976
O     1.4989949415    -1.4696479123    -0.8664633282
O    -0.0897608099    -2.0960064907     0.9480586112
P     0.2382304866    -0.8777803365    -0.0634257569
O    -0.8041474132    -0.4060540864    -0.9499601027
O     0.7718691579     0.2182555016     0.9473520338
H     5.5368077704    -1.8257741614     1.1437747675
H    -2.7883393038    -5.1628119706    -1.0176370581
H     6.2687662740    -3.8833161394     2.2217666909
H     5.7734640226    -6.1511674639     3.0491527512
H     3.5563579631    -7.1529888927     2.6466216402
H     1.8617841538    -5.9436230410     1.3576564738
H     2.7119877552    -5.6486867564    -1.1730999174
H     2.3163173035    -7.7175868725    -2.4205573404
H     0.0182432822    -8.5170458727    -2.8209584991
H    -1.9025632069    -7.1897799251    -2.0334789712
H     3.3081900658    -0.2624581518    -2.1635184722
H     3.1825510167     2.1745574887    -2.4829659519
H     4.2179111335     2.7766568669     1.6104471273
H     4.3209538585     0.3360406692     1.9439076313
H    -2.2922363658    -2.4223314698     2.2402378585
H    -3.8564671849    -0.5358382598     2.4778717027
H    -4.8905310331    -0.8665114541    -1.6472276718
H    -3.3196099835    -2.7490055652    -1.8916233089
H     1.3703212064    -0.0971632189     1.6258744398
C     3.4505452291     4.0892705730    -0.6148064212
C     4.5265040060     4.9346261421    -0.9074966066
C     2.1528094623     4.5999126351    -0.4684832559
C     4.2967050613     6.3371845820    -1.0639505550
C     5.8495602308     4.4438034692    -1.0600069792
C     1.9310921454     6.0037907849    -0.6270126387
C     1.0435952215     3.7706334045    -0.1536460571
C     5.3994211155     7.1790789026    -1.3600219066
C     3.0060675506     6.8371912623    -0.9225547389
C     6.8804235238     5.2857112782    -1.3437359748
H     6.0205783847     3.3827998833    -0.9464761978
C     0.6139344128     6.5084437789    -0.4730982121
C    -0.2025286848     4.2972490266    -0.0015443648
H     1.1957363375     2.7081177371    -0.0334857138
C     6.6539455861     6.6701525562    -1.4949060755
H     5.2171747612     8.2381642860    -1.4761638384
H     2.8348787261     7.8982800096    -1.0423536433
H     7.8837953639     4.9015639934    -1.4573389944
H     0.4564163850     7.5702191465    -0.6016985824
C    -0.4221665183     5.6807045579    -0.1677153694
H    -1.0341930043     3.6543193442     0.2444396755
H     7.4880803654     7.3186961660    -1.7200391550
H    -1.4222637607     6.0713466640    -0.0480091327
C    -5.2929388887     0.6521898023     0.5346400622
C    -4.8530715872     1.8381776624    -0.0742706592
C    -6.5028524590     0.6151023810     1.2407430034
C    -5.6594451492     3.0156263460     0.0241434975
C    -3.6210454742     1.9193334783    -0.7772305717
C    -7.2965422861     1.8001485252     1.3422469522
C    -6.9870991778    -0.5732211354     1.8477102676
C    -5.2123846396     4.2068266610    -0.6036003138
C    -6.8576954752     2.9698628104     0.7306370910
C    -3.2339996367     3.0816416259    -1.3728308907
H    -2.9829407470     1.0499846447    -0.8323953335
C    -8.5181144042     1.7456553632     2.0614985080
C    -8.1663848756    -0.5846736246     2.5272567912
H    -6.3994502268    -1.4750247408     1.7556109230
C    -4.0374971116     4.2378536276    -1.2891035970
H    -5.8319778222     5.0893261590    -0.5235979912
H    -7.4626715042     3.8634674581     0.8040518910
H    -2.2999561707     3.1250289169    -1.9129435084
H    -9.1078983775     2.6485897121     2.1357994163
C    -8.9403650066     0.5892818264     2.6403815412
H    -8.5235010652    -1.4960705531     2.9847548439
H    -3.7056400554     5.1469665745    -1.7701298476
H    -9.8722540817     0.5562402418     3.1861184448
