102
-166.33976535
C     4.3520971225    -3.6527380554     1.2823110665
C     3.0967053073    -4.2540195187     0.9986156001
C     2.1317167124    -3.5159910029     0.2576600579
C     2.4171629727    -2.2182734292    -0.1051779906
C     3.6404299042    -1.5911534409     0.2237688501
C     4.5923653209    -2.3216441744     0.8883542598
C     0.8008751210    -4.0594631622    -0.0880823135
C     0.6242558839    -5.2449650160    -0.8551686971
C    -0.6965719975    -5.6661007763    -1.1675584277
C    -1.7928004175    -4.8632743162    -0.7943163320
C    -1.6174813662    -3.6922253057    -0.1011376495
C    -0.3071881237    -3.3329511834     0.2861881320
C     5.3184805744    -4.3909057487     1.9983936458
C     5.0472615855    -5.6527056486     2.4465313112
C     3.7880141422    -6.2248707393     2.2133388371
C     2.8346929944    -5.5428277024     1.5091196701
C     1.7083631049    -5.9900417629    -1.3645099539
C     1.4965541822    -7.1294170657    -2.0905196746
C     0.1929228791    -7.5772830117    -2.3493970663
C    -0.8785734089    -6.8549633392    -1.9058906078
C     3.7747096248    -0.1541747504    -0.0598306017
C     3.4772573046     0.3665871172    -1.3158939094
C     3.4029257149     1.7323518059    -1.5048913577
C     3.6226742539     2.6036713107    -0.4437690286
C     4.0002470226     2.0854752211     0.7902375567
C     4.0782216745     0.7197064228     0.9802115459
C    -2.6862564700    -2.7080321274     0.1215222368
C    -2.8884616774    -2.1105947401     1.3613578373
C    -3.7442890207    -1.0339779767     1.4848193137
C    -4.4053500658    -0.5254892727     0.3717786549
C    -4.2584221144    -1.1704537117    -0.8520721651
C    -3.4134559955    -2.2537597307    -0.9751543291
O     1.4618534183    -1.4680477891    -0.7843958146
O    -0.1265521300    -2.1594655162     1.0081594790
P     0.2502244311    -0.9015028733     0.0791299738
O    -0.8046426757    -0.3031818589    -0.7253292311
O     0.8920603101     0.0634445790     1.1679359447
H     5.5391797194    -1.8647211151     1.1373554810
H    -2.7868859453    -5.1654365339    -1.0903179939
H     6.2764608561    -3.9310114200     2.1938802771
H     5.7921308312    -6.2103631727     2.9946229029
H     3.5733511033    -7.2107522099     2.5981151136
H     1.8644514542    -5.9851337652     1.3430653421
H     2.7145501320    -5.6468024839    -1.1791903999
H     2.3365356365    -7.6902167054    -2.4727401899
H     0.0443213119    -8.4855036309    -2.9144196315
H    -1.8870762396    -7.1763032053    -2.1226876807
H     3.2816864178    -0.3023652340    -2.1401379642
H     3.1378414517     2.1321293640    -2.4728184785
H     4.1960048457     2.7605425648     1.6110898866
H     4.3221521362     0.3216414235     1.9543423190
H    -2.3594696292    -2.4813150423     2.2269479824
H    -3.8743475617    -0.5529020064     2.4442354056
H    -4.7886664061    -0.7951315930    -1.7152803630
H    -3.2658098836    -2.7185188781    -1.9388626551
H     0.3224120963     0.8203099625     1.3018540212
C     3.3702701010     4.0538310199    -0.6010161437
C     4.3984558013     4.9296755290    -0.9652456346
C     2.0720094590     4.5304567279    -0.3692998593
C     4.1198466535     6.3258394142    -1.0993088186
C     5.7199766325     4.4744807831    -1.2112207134
C     1.8015721965     5.9282117000    -0.4970582178
C     1.0067855639     3.6656016821    -0.0036491346
C     5.1751154019     7.1971350625    -1.4730966841
C     2.8307518241     6.7920864723    -0.8599961409
C     6.7040627585     5.3438767452    -1.5684720313
H     5.9258567382     3.4185545620    -1.1098179306
C     0.4842020008     6.3928081288    -0.2472170157
C    -0.2417249364     4.1522042198     0.2356371994
H     1.2065734682     2.6063958260     0.0718171643
C     6.4292674946     6.7215351986    -1.7012653252
H     4.9567763815     8.2509863894    -1.5732657261
H     2.6244506804     7.8491215192    -0.9573931632
H     7.7066583305     4.9874184254    -1.7549155600
H     0.2885422527     7.4509911560    -0.3490724526
C    -0.5069016243     5.5324788149     0.1120284920
H    -1.0469222440     3.4865838846     0.5110220051
H     7.2266009225     7.3922688486    -1.9865510090
H    -1.5075640681     5.8916776613     0.3026931044
C    -5.2036690198     0.7132393783     0.4734911911
C    -4.7134970072     1.8857960679    -0.1239135175
C    -6.4241501274     0.7178948643     1.1626803658
C    -5.4777726300     3.0914569707    -0.0312654629
C    -3.4690570305     1.9272024587    -0.8082566901
C    -7.1745948672     1.9311649319     1.2601557830
C    -6.9612949796    -0.4546091364     1.7556866243
C    -4.9801666335     4.2683326850    -0.6482235315
C    -6.6855716129     3.0868023312     0.6600054409
C    -3.0319256013     3.0775003313    -1.3926519525
H    -2.8615887297     1.0360539496    -0.8577029640
C    -8.4063170992     1.9193949731     1.9638255490
C    -8.1489568927    -0.4249746288     2.4199709060
H    -6.4079280832    -1.3778775139     1.6649160013
C    -3.7955208761     4.2608913248    -1.3173011372
H    -5.5697048050     5.1716179899    -0.5735980420
H    -7.2581895305     4.0016916632     0.7301058742
H    -2.0872726922     3.0911834539    -1.9159071362
H    -8.9623290057     2.8436805161     2.0355343593
C    -8.8791813454     0.7768621974     2.5308482668
H    -8.5464475843    -1.3248603649     2.8666501428
H    -3.4244393210     5.1589046059    -1.7902879898
H    -9.8184034830     0.7763293245     3.0647632061
