102
-166.33957403
C     4.3517726348    -3.6530343454     1.0645801490
C     3.0821213587    -4.2545999153     0.8540725458
C     2.0851697163    -3.5277968107     0.1449395007
C     2.3584420215    -2.2402957787    -0.2613815571
C     3.5965773780    -1.6107709707    -0.0009473329
C     4.5763287354    -2.3305340232     0.6342113605
C     0.7327528152    -4.0680855121    -0.1110702739
C     0.4991724508    -5.2700438129    -0.8358652707
C    -0.8417983066    -5.6866906954    -1.0547863453
C    -1.9074684855    -4.8706455382    -0.6246840489
C    -1.6799383347    -3.6878390898     0.0314221992
C    -0.3446360201    -3.3249700566     0.3156660059
C     5.3493335017    -4.3803480623     1.7482564716
C     5.0961492373    -5.6315606085     2.2349165289
C     3.8251912174    -6.2029147740     2.0747767672
C     2.8410497483    -5.5314448579     1.4035438259
C     1.5441559075    -6.0358908105    -1.3937704389
C     1.2792051405    -7.1888878146    -2.0796848750
C    -0.0414138422    -7.6301606523    -2.2478176936
C    -1.0779335831    -6.8892312684    -1.7545094700
C     3.7230108098    -0.1797171044    -0.3173017372
C     4.0627384734     0.7119317774     0.6962295255
C     3.9939318321     2.0739667213     0.4801901504
C     3.5973980275     2.5726679609    -0.7566761733
C     3.3355529396     1.6810476812    -1.7915908336
C     3.3918884418     0.3185271721    -1.5737862894
C    -2.7254420631    -2.6985284167     0.3319019693
C    -2.8318567316    -2.1166382454     1.5909249467
C    -3.6649437654    -1.0336834465     1.7891052275
C    -4.3963352698    -0.5041171831     0.7316799720
C    -4.3465055139    -1.1330889034    -0.5070598325
C    -3.5243415479    -2.2241636567    -0.7039500935
O     1.3778207076    -1.5030893120    -0.9168642935
O    -0.1108501234    -2.1280303908     0.9841622171
P     0.1958751885    -0.9149697489    -0.0271491167
O    -0.9074622294    -0.3848619749    -0.8138799153
O     0.8602072005     0.1256249887     0.9744755010
H     5.5341196585    -1.8711203673     0.8313372639
H    -2.9207279248    -5.1738703530    -0.8447534407
H     6.3170827441    -3.9204730007     1.8876324493
H     5.8648638877    -6.1810143685     2.7577749425
H     3.6261548969    -7.1797706016     2.4897879465
H     1.8625853867    -5.9731851925     1.2940489315
H     2.5623171606    -5.6973893704    -1.2777791299
H     2.0895575979    -7.7657358190    -2.5000748901
H    -0.2317189017    -8.5489110569    -2.7824952601
H    -2.1002381950    -7.2067141569    -1.9008593850
H     4.3309289643     0.3309535995     1.6708476955
H     4.2212684878     2.7632373699     1.2809232960
H     3.0505881531     2.0633684951    -2.7610642239
H     3.1608143579    -0.3651330816    -2.3765506484
H    -2.2440375244    -2.5033979517     2.4104144099
H    -3.7244149814    -0.5654345501     2.7616592067
H    -4.9292146324    -0.7376757496    -1.3261657829
H    -3.4502199106    -2.6773057248    -1.6813541444
H     0.2791662141     0.8794081153     1.0742034727
C     3.3866742329     4.0236620923    -0.9487350339
C     2.2404072220     4.6161039083    -0.3974533916
C     4.3026071645     4.7884625257    -1.6819037901
C     2.0132577878     6.0155106302    -0.5810350281
C     1.2769279624     3.8660800706     0.3276030460
C     4.0669437404     6.1870901343    -1.8637832087
C     5.4761391563     4.2222449749    -2.2446482868
C     0.8490061470     6.5983763756    -0.0170605442
C     2.9310171033     6.7674760023    -1.3081524702
C     0.1720875382     4.4631391231     0.8533795390
H     1.4387793060     2.8050092191     0.4510427660
C     5.0055118922     6.9461179091    -2.6090383609
C     6.3522729145     4.9856622396    -2.9531501811
H     5.6608676045     3.1681568687    -2.0967731065
C    -0.0437638659     5.8466797416     0.6820616883
H     0.6888938233     7.6578400108    -0.1592360696
H     2.7565668681     7.8256845302    -1.4462198082
H    -0.5567965482     3.8847147701     1.4029247173
H     4.8171392997     8.0019133276    -2.7434650719
C     6.1140284110     6.3635023088    -3.1406267746
H     7.2415523359     4.5432694213    -3.3779751786
H    -0.9276437219     6.2965154528     1.1099274825
H     6.8233220819     6.9486953373    -3.7075343385
C    -5.1579129199     0.7510493287     0.9153176619
C    -4.5774366444     1.9578627495     0.4973090697
C    -6.4217760633     0.7356415915     1.5172546403
C    -5.2853614043     3.1838698260     0.7006610886
C    -3.2973514890     2.0084875843    -0.1165952218
C    -7.1262884907     1.9648360765     1.7102881302
C    -7.0395411897    -0.4712786990     1.9371289337
C    -4.6822258707     4.3986484283     0.2834761068
C    -6.5406879088     3.1586899013     1.3012928722
C    -2.7576102353     3.1964806137    -0.5066983081
H    -2.7554314427     1.0893883341    -0.2814713558
C    -8.4076798346     1.9280723359     2.3178538032
C    -8.2715306052    -0.4635707197     2.5153083897
H    -6.5088148482    -1.3998493136     1.7837126002
C    -3.4546251555     4.4059151217    -0.3033759262
H    -5.2262073015     5.3193779449     0.4425788386
H    -7.0730753192     4.0878246304     1.4531662693
H    -1.7865669933     3.2203264461    -0.9794812475
H    -8.9328085259     2.8621619453     2.4603357742
C    -8.9643106202     0.7501248125     2.7096418775
H    -8.7328696424    -1.3884533346     2.8299676006
H    -3.0011658919     5.3337171423    -0.6214686900
H    -9.9412373327     0.7312313879     3.1706224316
