78
-165.72268637
C    -2.6073655353    -3.3843186702    -1.3367130173
C    -1.2442615148    -3.4590059187    -1.0471594183
C    -0.6649456924    -2.4743325029    -0.2392081024
C    -1.4175096565    -1.3770215656     0.1707070064
C    -2.7673256695    -1.2682998373    -0.1553473152
C    -3.3468250970    -2.3031255621    -0.8805723808
C     0.7684708752    -2.4974861190     0.1390104043
C     1.3259268590    -3.4767299561     0.9667051706
C     2.6922591613    -3.4213584065     1.2499624685
C     3.4480585671    -2.3523681757     0.7914542521
C     2.8879409051    -1.3166830375     0.0507484602
C     1.5461189467    -1.4328674640    -0.3043974500
C    -3.3123994159    -4.4641820050    -2.1123569855
C    -2.3645437894    -5.3115459788    -2.9532416110
C    -1.1758267720    -5.7408356402    -2.1041535093
C    -0.3804134600    -4.5067108418    -1.6950442605
C     0.4421289384    -4.4886629416     1.6434940275
C     1.2115306754    -5.7324396447     2.0728059464
C     2.4171278258    -5.3128832862     2.9028046196
C     3.3777237199    -4.5055457101     2.0371824415
C    -3.5362072630    -0.0729772258     0.2129047938
C    -3.4458742146     0.4764164894     1.4900364124
C    -4.1689267986     1.6144322577     1.8062496991
C    -4.9872457262     2.2328119187     0.8697351178
C    -5.0757072459     1.6766844829    -0.3967961556
C    -4.3585584355     0.5370643560    -0.7292148099
C     3.6236482776    -0.0866285710    -0.2595874070
C     3.4711406363     0.5583744604    -1.4823311915
C     4.0766010562     1.7866840622    -1.7024446005
C     4.8707034587     2.3811883756    -0.7357108665
C     5.0501670684     1.7121912473     0.4679413300
C     4.4307919994     0.4989168603     0.7137378802
O    -0.7850047263    -0.3431765610     0.8539118485
O     0.9081187829    -0.4218881351    -1.0128090322
P     0.1628794460     0.6074631257    -0.0103786328
O     1.0340512068     1.4525758832     0.7894490319
O    -0.8238388957     1.3411145282    -1.0130861089
H    -4.4010810246    -2.2511864905    -1.1094376000
H     4.4985493119    -2.3078368432     1.0377940727
H    -3.8251279175    -5.1097009691    -1.3911497756
H    -2.8964200520    -6.1825365036    -3.3390477300
H    -1.5311317740    -6.2660804670    -1.2148692917
H     0.0532318556    -4.0520366153    -2.5928844047
H     0.0276742202    -4.0043048714     2.5348201063
H     0.5577149439    -6.3859127510     2.6522797558
H     2.0814301050    -4.7055707970     3.7453561199
H     3.8656680093    -5.1768198595     1.3221991436
H    -2.8191991804     0.0110899370     2.2344108211
H    -5.5457285003     3.1196828422     1.1267242334
H    -4.4284528039     0.1321723411    -1.7273631919
H     2.8776909187     0.1103990970    -2.2638112714
H     5.3326893430     3.3409091263    -0.9081758624
H     4.5454876819     0.0225033761     1.6749418087
H    -0.4597096594     2.1792920041    -1.2976762601
C    -5.9280664911     2.3249834739    -1.4541955948
C    -4.0723459424     2.2263415881     3.1785495434
C     3.7976427634     2.4798945622    -3.0066175585
C     5.9535867393     2.3248194163     1.5044696991
F    -6.6036543162     1.4206331782    -2.1830458672
F    -5.1881673359     3.0301475958    -2.3296818479
F    -6.8356183938     3.1706579488    -0.9553355001
F    -3.3910921912     3.3839321684     3.1643865315
F    -3.4662032151     1.4326929655     4.0681179872
F    -5.2837581514     2.5127843254     3.6865703952
F     4.0036349740     1.6780473531    -4.0655907774
F     4.5402864178     3.5726793272    -3.2043830080
F     2.5093459032     2.8724940484    -3.0883711447
F     5.7583503934     1.8318272870     2.7329462708
F     7.2531152912     2.1004468179     1.2152818024
F     5.8176617340     3.6538729436     1.5906057784
H    -4.0812781010    -4.0166792415    -2.7448374444
H    -2.0078219757    -4.7305259764    -3.8057349293
H    -0.5329342878    -6.4221127218    -2.6634572560
H     0.4540759388    -4.7819343511    -1.0519618238
H    -0.4041067250    -4.7569131344     1.0124877556
H     1.5466764892    -6.2852611226     1.1923658041
H     2.9318139636    -6.1878846478     3.3026314868
H     4.1641625595    -4.0675155590     2.6541860059
