78
-165.72251042
C    -2.6240092101    -3.3712630591    -1.3410210685
C    -1.2611070157    -3.4527364595    -1.0525878187
C    -0.6764890557    -2.4710176446    -0.2448478355
C    -1.4226491938    -1.3688875487     0.1642205631
C    -2.7720469615    -1.2527553968    -0.1617256321
C    -3.3572298092    -2.2859852349    -0.8849040056
C     0.7564446382    -2.5039492872     0.1346042330
C     1.3061994314    -3.4875327862     0.9624121429
C     2.6726264858    -3.4419267542     1.2469506047
C     3.4364449070    -2.3782280040     0.7894785229
C     2.8843862250    -1.3382364040     0.0487480670
C     1.5421415493    -1.4448656949    -0.3077385440
C    -3.3352822230    -4.4478328178    -2.1155270075
C    -2.3924575822    -5.2995464779    -2.9576345188
C    -1.2051044396    -5.7349253961    -2.1097473795
C    -0.4031621299    -4.5048438348    -1.7011144540
C     0.4145671481    -4.4932505404     1.6381997160
C     1.1747567127    -5.7419741200     2.0696265778
C     2.3823346021    -5.3301695391     2.9006270553
C     3.3495478499    -4.5309113465     2.0349051106
C    -3.5351527061    -0.0524354658     0.2025024671
C    -4.3613109213     0.5514029515    -0.7423412746
C    -5.0689340409     1.6965894103    -0.4170380981
C    -4.9742387146     2.2614507273     0.8473821824
C    -4.1544913720     1.6501172493     1.7852394379
C    -3.4365177050     0.5063939289     1.4740377641
C     3.6294704275    -0.1134060322    -0.2598485012
C     3.4832026447     0.5339291145    -1.4820821594
C     4.0991046106     1.7573812841    -1.7006493189
C     4.8972908674     2.3443160739    -0.7327254081
C     5.0701251126     1.6728144066     0.4706029096
C     4.4403872699     0.4647124843     0.7148877822
O    -0.7842898834    -0.3393895340     0.8482754755
O     0.9116821627    -0.4284790578    -1.0154700306
P     0.1758772273     0.6043652796    -0.0099821700
O     1.0545801181     1.4361694150     0.7954862258
O    -0.7993521359     1.3546642736    -1.0119516289
H    -4.4115283651    -2.2297445920    -1.1123739687
H     4.4869865697    -2.3412820150     1.0368231090
H    -3.8502304652    -5.0908665130    -1.3936636827
H    -2.9289654299    -6.1678655373    -3.3430219932
H    -1.5620885332    -6.2588036938    -1.2203137248
H     0.0320784531    -4.0521831924    -2.5992162111
H     0.0016766742    -4.0055423239     2.5284363628
H     0.5156503447    -6.3901248564     2.6490760345
H     2.0501925771    -4.7193868842     3.7420990066
H     3.8325701215    -5.2063637866     1.3204881492
H    -4.4325435386     0.1374856574    -1.7363774108
H    -5.5276808750     3.1542375339     1.0952849259
H    -2.8085099259     0.0448906855     2.2196526131
H     2.8867515211     0.0915255800    -2.2644557567
H     5.3677078074     3.3001828042    -0.9038625166
H     4.5502503938    -0.0136062807     1.6756857503
H    -0.4270441689     2.1944022209    -1.2809106371
C    -4.0392577858     2.2723926329     3.1513496294
C    -5.9701461475     2.3568903976    -1.4257765502
C     3.8272105325     2.4542256514    -3.0043608495
C     5.9768582622     2.2800124495     1.5074476854
F    -3.5204673616     1.4422729450     4.0635998588
F    -5.2318679057     2.6665414849     3.6286680240
F    -3.2613136837     3.3676487609     3.1389969621
F    -5.8826070422     1.8125635430    -2.6461115615
F    -5.7010145323     3.6638769596    -1.5674915967
F    -7.2644500777     2.2766367745    -1.0675714833
F     4.5809107819     3.5395297900    -3.2013928179
F     2.5429290176     2.8601894875    -3.0856902906
F     4.0247663147     1.6511371655    -4.0638950725
F     7.2758020519     2.0793643336     1.1998809627
F     5.8231639116     3.6055191213     1.6174033439
F     5.8025443493     1.7641030941     2.7295098493
H    -4.1026674992    -3.9966734529    -2.7472325369
H    -2.0338889408    -4.7200460691    -3.8104034833
H    -0.5661468743    -6.4191114920    -2.6699798768
H     0.4303999456    -4.7844101932    -1.0587073966
H    -0.4322553501    -4.7563078551     1.0058037997
H     1.5069441882    -6.2981641531     1.1901638805
H     2.8902273421    -6.2084128121     3.3020153939
H     4.1390902680    -4.0985485521     2.6519513142
