78
-165.72118233
C    -2.6386780720    -3.3865135389    -1.4834183824
C    -1.2736605664    -3.4893819962    -1.2106792058
C    -0.6635753862    -2.5224781772    -0.4032538459
C    -1.3988529738    -1.4272278324     0.0468643132
C    -2.7510150523    -1.2934265900    -0.2586882825
C    -3.3547390037    -2.3011054553    -1.0015831557
C     0.7712708811    -2.5701197115    -0.0359778542
C     1.3368181515    -3.5841800251     0.7343553494
C     2.6865152126    -3.5119538123     1.0871046521
C     3.4469892662    -2.4161866160     0.7248846638
C     2.8897149882    -1.3674220175    -0.0042079784
C     1.5605454618    -1.4817981924    -0.4053314327
C    -3.3715268291    -4.4387080249    -2.2709750522
C    -2.4469569206    -5.2822847171    -3.1403716275
C    -1.2638628588    -5.7552641178    -2.3073660288
C    -0.4387444171    -4.5493103566    -1.8740508029
C     0.5569023411    -4.7063038406     1.3464057360
C     0.8467489492    -4.7024108466     2.8529694498
C     2.3439347933    -4.8813557746     3.1498294894
C     3.2227871401    -4.6401183530     1.9101661607
C    -3.4990344345    -0.0973411357     0.1493310574
C    -4.3126421885     0.5544264249    -0.7720879276
C    -5.0094074026     1.6957971611    -0.4040910127
C    -4.9089985501     2.2119888450     0.8783011805
C    -4.0998961206     1.5517097242     1.7940171633
C    -3.3972580288     0.4113123643     1.4422927670
C     3.6152985937    -0.1156099480    -0.2474992186
C     4.3676415026     0.4552279878     0.7769316934
C     4.9730283726     1.6864067647     0.5937796304
C     4.8330522707     2.3871434741    -0.5968995930
C     4.0943903865     1.8068190135    -1.6148301358
C     3.5038748084     0.5617631647    -1.4569575796
O    -0.7567017344    -0.4232091044     0.7641270296
O     0.9405751419    -0.4429977313    -1.0901722013
P     0.1927101191     0.5574797112    -0.0625629865
O     1.0579630315     1.3766970820     0.7701918274
O    -0.7882354600     1.3245328216    -1.0458393921
H    -4.4101598693    -2.2264402552    -1.2185794084
H     4.4824806603    -2.3577321552     1.0246162965
H    -3.8858606566    -5.0912831421    -1.5574101606
H    -2.9981320613    -6.1325265251    -3.5448657304
H    -1.6265639026    -6.2910852093    -1.4277153742
H     0.0151231791    -4.0925194811    -2.7606267121
H    -0.5117199477    -4.5838325869     1.1696508892
H     0.5020169643    -3.7487357559     3.2560315525
H     2.6399790015    -4.1835915668     3.9332973556
H     3.2248059153    -5.5454254383     1.2962046823
H    -4.3912660539     0.1806452781    -1.7816796613
H    -5.4512750741     3.1004372454     1.1630715324
H    -2.7776982372    -0.0870260964     2.1710935866
H     4.4487830216    -0.0467017223     1.7285028342
H     5.2826794012     3.3601425471    -0.7209191462
H     2.9536398100     0.1260500057    -2.2761991629
H    -0.4236131077     2.1729248462    -1.2975497917
C    -3.9922479510     2.1205504201     3.1838984954
C    -5.8523929446     2.3892889341    -1.4400741001
C     5.8166854747     2.2867040280     1.6862798847
C     3.8570643940     2.5358412105    -2.9075694173
F    -3.3789892962     1.3003390838     4.0437427918
F    -5.2001088672     2.3901872762     3.7099097402
F    -3.3121362546     3.2786914227     3.2001944899
F    -6.5530159704     1.5185869454    -2.1862464101
F    -5.1011117599     3.0978659036    -2.3030686703
F    -6.7370905298     3.2435087013    -0.9155278602
F     5.6360440837     3.6069986862     1.8146601642
F     7.1327062156     2.1126521673     1.4400144363
F     5.5910815085     1.7429856671     2.8876756392
F     4.6050164381     3.6336585921    -3.0507488170
F     4.0967244838     1.7644000016    -3.9816250192
F     2.5717351471     2.9315924262    -3.0188525230
H    -4.1404203900    -3.9652286489    -2.8842519447
H    -2.0834486612    -4.6865319207    -3.9797327816
H    -0.6382762217    -6.4377761670    -2.8845113309
H     0.3792373005    -4.8589765946    -1.2274399455
H     0.8701747343    -5.6668049876     0.9274705680
H     0.2701287857    -5.4921772106     3.3352624075
H     2.5389367310    -5.8889331097     3.5193912218
H     4.2507236577    -4.4440700915     2.2142882606
