78
-165.72077808
C    -2.6047539158    -3.3888882358    -1.2936171052
C    -1.2553395806    -3.4893044276    -0.9567846879
C    -0.6750788300    -2.4962654122    -0.1581336199
C    -1.4216873804    -1.3849676499     0.2239235903
C    -2.7639077138    -1.2636100586    -0.1291087542
C    -3.3380656791    -2.2897820480    -0.8687577291
C     0.7586427807    -2.5162178927     0.2192416295
C     1.3381208239    -3.4766239988     1.0448646111
C     2.7006230015    -3.3925026362     1.3454355220
C     3.4561265229    -2.3311449052     0.8863053426
C     2.8773617703    -1.3145431469     0.1280648630
C     1.5375298842    -1.4477364017    -0.2273122443
C    -3.2922255263    -4.4067943380    -2.1636641614
C    -2.4615255475    -5.6657896821    -2.3806470253
C    -1.0297488006    -5.2677046244    -2.7123870378
C    -0.4044215181    -4.6089889616    -1.4880438903
C     0.5623196542    -4.5368643272     1.7632216990
C     1.2353146532    -5.9205695374     1.6994972810
C     2.7637151286    -5.8277434049     1.6137300365
C     3.2736768285    -4.4985419186     2.1757491908
C    -3.5248598588    -0.0576068235     0.2210716213
C    -4.3127420848     0.5665164230    -0.7408351076
C    -5.0196444065     1.7173184762    -0.4251072103
C    -4.9551001673     2.2701374377     0.8442048596
C    -4.1711619449     1.6374932933     1.8004988366
C    -3.4584908537     0.4885021259     1.5010623478
C     3.5982126208    -0.0792512084    -0.1981569721
C     3.4478469542     0.5442138188    -1.4322038371
C     4.0374280879     1.7778004722    -1.6658412791
C     4.8139586508     2.3986018295    -0.7014277149
C     4.9926681070     1.7506200945     0.5137841449
C     4.3885182738     0.5325480698     0.7729147400
O    -0.7933345788    -0.3476552151     0.9069063422
O     0.9001759587    -0.4468398394    -0.9505738560
P     0.1548522970     0.5963820338     0.0368899014
O     1.0247501156     1.4501733057     0.8289938339
O    -0.8283906140     1.3195842418    -0.9769030253
H    -4.3826225008    -2.2195082409    -1.1345279121
H     4.5039115118    -2.2688637370     1.1390135337
H    -4.2592818410    -4.6607639662    -1.7238931208
H    -2.4671084110    -6.2768420503    -1.4755944405
H    -0.4425996055    -6.1419194894    -2.9975329096
H     0.5903465763    -4.2240145811    -1.7223192220
H     0.5215884072    -4.2265036901     2.8124977214
H     0.9444904412    -6.4821556757     2.5884269723
H     3.2188535131    -6.6599067880     2.1511655878
H     4.3631574836    -4.4678757210     2.1572554392
H    -4.3632601109     0.1642381442    -1.7411911723
H    -5.5052862461     3.1658193286     1.0882399331
H    -2.8581061095     0.0123030996     2.2601695008
H     2.8683824700     0.0756467800    -2.2121519031
H     5.2631300962     3.3624526935    -0.8844276561
H     4.5011819049     0.0726358949     1.7423889656
H    -0.4615875408     2.1529902003    -1.2720040429
C    -4.1023350671     2.2461851802     3.1758614174
C    -5.8332843619     2.3798529290    -1.5039496063
C     3.7578035645     2.4490256383    -2.9812617424
C     5.8774648632     2.3932786020     1.5481506739
F    -3.5117331910     1.4522920841     4.0754060298
F    -5.3245284552     2.5281580586     3.6607376970
F    -3.4245142681     3.4057893837     3.1776882597
F    -5.0573892160     3.0580898513    -2.3695051967
F    -6.7279806707     3.2529637626    -1.0300736040
F    -6.5177408725     1.4877178308    -2.2398081314
F     3.9663951227     1.6314908183    -4.0273389433
F     4.4972468228     3.5408569558    -3.1957228019
F     2.4682075504     2.8368287151    -3.0694412170
F     5.7114877263     3.7197881804     1.6202829398
F     5.6880757964     1.9084431431     2.7806018810
F     7.1829207933     2.1955118996     1.2665594073
H    -3.4937780785    -3.9389624690    -3.1324576245
H    -2.8958308420    -6.2576205311    -3.1874847923
H    -1.0295786429    -4.5710578196    -3.5525859149
H    -0.2817110234    -5.3690875261    -0.7135710514
H    -0.4656807582    -4.5884343221     1.4073357165
H     0.8656082393    -6.4745083796     0.8354220591
H     3.0794858612    -5.8944109472     0.5706319413
H     2.9484792245    -4.3932773542     3.2142063580
