78
-165.72005911
C    -2.6730380387    -3.5035992264    -1.1799640707
C    -1.3074987704    -3.5983501120    -0.9041230463
C    -0.6670631573    -2.5784359560    -0.2013745580
C    -1.4055921823    -1.4582504398     0.1878161645
C    -2.7606341744    -1.3414056441    -0.1123762827
C    -3.3852284355    -2.3854525881    -0.7908557954
C     0.7800395429    -2.6033727876     0.1039061997
C     1.3956928469    -3.6153399682     0.8377920752
C     2.7646647907    -3.5387205962     1.1065090352
C     3.4959596570    -2.4374015801     0.7038881293
C     2.8934927146    -1.3959243663     0.0004761852
C     1.5456013226    -1.5201773879    -0.3290103098
C    -3.2901443103    -4.6458237950    -1.9226372104
C    -2.4947603463    -4.9699119352    -3.1982785928
C    -0.9779101264    -4.8320281868    -2.9946329694
C    -0.5967190981    -4.7676799895    -1.5098899391
C     0.6601344317    -4.7447533997     1.4875061869
C     1.0504721692    -4.7658127407     2.9710530663
C     2.5643586378    -4.9393276508     3.1685635947
C     3.3592705180    -4.6733472034     1.8789592898
C    -3.4975273826    -0.1177890855     0.2318325179
C    -3.3942164994     0.4554003102     1.4972740744
C    -4.0856851751     1.6197128467     1.7873940630
C    -4.8848239469     2.2404795830     0.8359907058
C    -4.9872948084     1.6598673819    -0.4183256034
C    -4.3018355079     0.4936278595    -0.7245657965
C     3.5964315371    -0.1407483089    -0.2887055840
C     3.4186481006     0.5298401906    -1.4939294488
C     3.9791413031     1.7845686213    -1.6819302883
C     4.7574688435     2.3795824244    -0.7029300681
C     4.9683550121     1.6833692994     0.4798894357
C     4.3902720997     0.4443111213     0.6956664163
O    -0.7639328053    -0.4166989060     0.8495034739
O     0.8983090370    -0.5083327893    -1.0257872847
P     0.1735103615     0.5325312718    -0.0239518719
O     1.0553034999     1.3775388874     0.7645175331
O    -0.8200206094     1.2672458205    -1.0189101611
H    -4.4393585447    -2.3116496271    -1.0128469888
H     4.5466556663    -2.3724832187     0.9434910681
H    -3.2828065411    -5.5233525326    -1.2696400581
H    -2.7444539143    -5.9843503529    -3.5116962145
H    -0.4574620156    -5.6665069962    -3.4653528494
H     0.4830461314    -4.6652370534    -1.4087954060
H    -0.4174115479    -4.6179653347     1.3886589909
H     0.7274763952    -3.8217036214     3.4128171666
H     2.9063006206    -4.2515835456     3.9422057559
H     3.3265524298    -5.5696028549     1.2527183286
H    -2.7822348779    -0.0114311827     2.2528760445
H    -5.4180619038     3.1483038632     1.0726857995
H    -4.3821379671     0.0687100668    -1.7136278960
H     2.8390694828     0.0825875991    -2.2861778422
H     5.1829686051     3.3601603988    -0.8499914554
H     4.5252769807    -0.0532068348     1.6435178677
H    -0.4527696876     2.0989978928    -1.3182318474
C    -5.8200172439     2.3078719185    -1.4914037813
C    -3.9767307369     2.2581077416     3.1465989574
C     3.6608755957     2.5059327421    -2.9612603089
C     5.8575117967     2.2959674645     1.5286078382
F    -6.6969152342     3.1972851150    -1.0144397611
F    -6.5280079395     1.4073442319    -2.1939225488
F    -5.0589609060     2.9629910906    -2.3873642697
F    -3.3703336466     1.4791800907     4.0485720706
F    -5.1839409541     2.5617658176     3.6555446149
F    -3.2895135967     3.4113834663     3.1051958913
F     4.3559416455     3.6338666597    -3.1310886913
F     2.3560870943     2.8480197106    -3.0180818922
F     3.8871419102     1.7471297115    -4.0472143843
F     7.1619047990     2.1113796424     1.2326886573
F     5.6881849884     3.6186128485     1.6450821305
F     5.6777480039     1.7704450875     2.7459143319
H    -4.3281842322    -4.4291796803    -2.1744706362
H    -2.8133870259    -4.2959595206    -3.9938787822
H    -0.6243327124    -3.9147723942    -3.4684342230
H    -0.9045777028    -5.6940662753    -1.0183055591
H     0.9412141080    -5.6954618436     1.0271306237
H     0.5106419223    -5.5672792000     3.4761264951
H     2.7887016449    -5.9509704502     3.5091925812
H     4.4036324940    -4.4744614504     2.1185859592
