78
-165.71966344
C    -2.6493763649    -3.3764082447    -1.4732779140
C    -1.2869324028    -3.4924524925    -1.1886352570
C    -0.6564034419    -2.5240833807    -0.4079557279
C    -1.3961075443    -1.4230089685     0.0309299752
C    -2.7476868600    -1.2847044250    -0.2752029865
C    -3.3678476121    -2.2899082090    -1.0137916711
C     0.7847138285    -2.5666912372    -0.0716383924
C     1.3796246519    -3.5986756379     0.6509478726
C     2.7392702914    -3.5289147221     0.9644804237
C     3.4823724509    -2.4183172608     0.6121726991
C     2.8994728125    -1.3567682607    -0.0773889729
C     1.5605939374    -1.4693234538    -0.4455223990
C    -3.2659533532    -4.4860019555    -2.2656731334
C    -2.8279338823    -5.8168785462    -1.6471034525
C    -1.2998954689    -5.9695175820    -1.6557835115
C    -0.5714051999    -4.6282724722    -1.8506172660
C     0.6266393743    -4.7465518405     1.2462048137
C     0.9610495113    -4.7987986247     2.7424726681
C     2.4684898456    -4.9669351565     2.9904684307
C     3.3071286110    -4.6796344186     1.7332731686
C    -3.4853684598    -0.0799344549     0.1277685419
C    -3.3878981974     0.4293787019     1.4207359284
C    -4.0801130210     1.5783552537     1.7652644249
C    -4.8742401834     2.2465336710     0.8422351703
C    -4.9711050551     1.7292072259    -0.4399649996
C    -4.2848915484     0.5791796687    -0.8007350736
C     3.6113591787    -0.0954023053    -0.3124481907
C     3.4664496084     0.6071968001    -1.5037828012
C     4.0391027954     1.8624638648    -1.6458756738
C     4.7950156221     2.4277608800    -0.6322185512
C     4.9710369162     1.7010740881     0.5379212594
C     4.3820864583     0.4598885214     0.7068438604
O    -0.7560038772    -0.4179818360     0.7488201242
O     0.9270384689    -0.4280166163    -1.1122413300
P     0.1887078965     0.5684171727    -0.0750859967
O     1.0599028032     1.3812748482     0.7577074286
O    -0.7963375147     1.3427397577    -1.0484540320
H    -4.4214512876    -2.2064807630    -1.2348545812
H     4.5256286390    -2.3606669560     0.8839006119
H    -4.3529903002    -4.4043288518    -2.2623050838
H    -3.1957443235    -5.8453821586    -0.6195838642
H    -0.9810157874    -6.4213343561    -0.7163261114
H    -0.5462650143    -4.4035855442    -2.9217354955
H    -0.4470261489    -4.6244075039     1.1068982993
H     0.6149389348    -3.8674835682     3.1937584223
H     2.7795779528    -4.2875047025     3.7842027223
H     3.2951385211    -5.5644176621     1.0901237920
H    -2.7799468065    -0.0749576908     2.1551792222
H    -5.4081299952     3.1418308181     1.1213655713
H    -4.3604277718     0.2042444213    -1.8101854591
H     2.9035478298     0.1837356411    -2.3208081326
H     5.2302287117     3.4087892097    -0.7436606143
H     4.4904008084    -0.0625667650     1.6446143123
H    -0.4291111187     2.1892385162    -1.3030189528
C    -5.7978765386     2.4309546877    -1.4834010879
C    -3.9763977661     2.1483528685     3.1549536317
C     3.7602017332     2.6184952816    -2.9144545990
C     5.8346754890     2.2837182725     1.6243436572
F    -6.6777862229     3.2949249116    -0.9666870798
F    -6.5015392204     1.5675702838    -2.2350143749
F    -5.0317909352     3.1311036206    -2.3402042277
F    -3.2804625223     3.2970185208     3.1749343851
F    -3.3818965937     1.3213646073     4.0214952083
F    -5.1848572411     2.4357321797     3.6702275625
F     4.4829643580     3.7343458610    -3.0458728314
F     2.4648329824     2.9908521730    -2.9877283134
F     3.9908393551     1.8791128445    -4.0126693445
F     7.1459771204     2.1149048501     1.3505841873
F     5.6558080847     3.6013352071     1.7788698873
F     5.6319854523     1.7191294934     2.8202914904
H    -2.9247923613    -4.4375947098    -3.3031822365
H    -3.2912387275    -6.6440059844    -2.1852614262
H    -0.9941986036    -6.6417619711    -2.4585945169
H     0.4598656370    -4.7029172728    -1.5111810189
H     0.9351074565    -5.6855785668     0.7787761874
H     0.4092724463    -5.6156568018     3.2086639910
H     2.6866597366    -5.9817742970     3.3256334730
H     4.3428897415    -4.4867988663     2.0119666849
