78
-165.7196082
C    -2.6620768310    -3.4902962228    -1.0172397691
C    -1.3042534222    -3.5799539018    -0.7045792178
C    -0.6786049601    -2.5427930185    -0.0142503912
C    -1.4233131822    -1.4102665084     0.3225709803
C    -2.7717414544    -1.3012573375    -0.0089478264
C    -3.3824494920    -2.3628588478    -0.6724849900
C     0.7653625382    -2.5513667366     0.3123198469
C     1.3776533579    -3.5143057686     1.1123967581
C     2.7468279356    -3.4210763942     1.3763785198
C     3.4814177307    -2.3514625902     0.9021366509
C     2.8774591358    -1.3454730074     0.1498936023
C     1.5296504673    -1.4886403159    -0.1715646443
C    -3.2584792809    -4.6457755770    -1.7563308559
C    -2.4273406626    -4.9872040019    -3.0046068031
C    -0.9158081615    -4.8581110134    -2.7571016958
C    -0.5820128327    -4.7659968624    -1.2625428529
C     0.6417265575    -4.6100667038     1.8177294189
C     1.3327082596    -5.9756406870     1.6565631704
C     2.8630624060    -5.8612234835     1.6061566157
C     3.3484075316    -4.5285619523     2.1837752081
C    -3.5131843628    -0.0671540042     0.2835179962
C    -3.4316488733     0.5442828083     1.5325832350
C    -4.1271606869     1.7170574930     1.7748915424
C    -4.9087194840     2.3089676901     0.7909991728
C    -4.9890315548     1.6908325439    -0.4468727609
C    -4.2994076652     0.5154986535    -0.7053007402
C     3.5810648921    -0.1077344752    -0.2043307168
C     4.3833757503     0.5213096572     0.7456102231
C     4.9648641279     1.7459879413     0.4663017592
C     4.7493282657     2.3848001075    -0.7477071550
C     3.9624402677     1.7461982358    -1.6917926492
C     3.3982127457     0.5044679088    -1.4395721710
O    -0.7888763902    -0.3437730559     0.9518076217
O     0.8795558010    -0.5112113224    -0.9140626197
P     0.1513621399     0.5694817515     0.0429559704
O     1.0315074211     1.4463650325     0.7976945702
O    -0.8392588691     1.2624983906    -0.9846044040
H    -4.4308913914    -2.2941640944    -0.9213353148
H     4.5343062572    -2.2795751180     1.1298821393
H    -3.2689540210    -5.5134086581    -1.0902275560
H    -2.6751241452    -6.0026240955    -3.3164308997
H    -0.3888533733    -5.7072659179    -3.1932497756
H     0.4944483073    -4.6695575184    -1.1259591681
H     0.6362040880    -4.3511308039     2.8812936898
H     1.0312834751    -6.6097280456     2.4913808529
H     3.3192552241    -6.6881746595     2.1506513879
H     4.4369306813    -4.4765887444     2.1581311707
H    -2.8332446324     0.1003703073     2.3125231847
H    -5.4453081669     3.2237182775     0.9905486555
H    -4.3621014274     0.0611959381    -1.6824845824
H     4.5226418649     0.0696696970     1.7155734866
H     5.1780535999     3.3550926895    -0.9450280643
H     2.8121424346     0.0217662285    -2.2057768578
H    -0.4702355264     2.0813890490    -1.3156856782
C    -5.8013304823     2.3063044770    -1.5541453511
C    -4.0423092677     2.3963953733     3.1158335200
C     5.8635623350     2.4047533391     1.4782738759
C     3.6395207049     2.4059104617    -3.0029041408
F    -6.5006507345     1.3856118416    -2.2390742986
F    -5.0229788157     2.9296772403    -2.4579073750
F    -6.6829695791     3.2133944488    -1.1212125575
F    -3.3563481918     3.5493346330     3.0513716100
F    -3.4503194767     1.6463663852     4.0512152406
F    -5.2586093920     2.7128203140     3.5946994318
F     5.6886573032     1.9409807062     2.7210770977
F     5.7015013356     3.7324833930     1.5302574785
F     7.1650821109     2.1989342606     1.1839881905
F     2.3371640448     2.7556779459    -3.0666383040
F     4.3422663109     3.5181499402    -3.2337832508
F     3.8509722538     1.5923071435    -4.0515167107
H    -4.2891853174    -4.4342629908    -2.0405460539
H    -2.7177066203    -4.3180297540    -3.8149207918
H    -0.5388180498    -3.9544780666    -3.2389104201
H    -0.9164788821    -5.6806281827    -0.7657428261
H    -0.3955432048    -4.6671950726     1.4929850920
H     0.9806348211    -6.4547300368     0.7427003778
H     3.2035913617    -5.9208886670     0.5705312584
H     3.0289887953    -4.4456258919     3.2259849269
