102
-166.33769864
C     3.9228965595    -3.5850703707     1.4674773967
C     2.6871438742    -4.1033402588     0.9982950656
C     1.8519204211    -3.2705971317     0.2033137662
C     2.2263433401    -1.9669881119    -0.0340078755
C     3.4417181471    -1.4338731951     0.4495094906
C     4.2729660893    -2.2539422450     1.1723926033
C     0.5583980388    -3.7395163943    -0.3348161422
C     0.4561800722    -4.8560270737    -1.2099778373
C    -0.8269527611    -5.2321215420    -1.6890312074
C    -1.9540275493    -4.4660562539    -1.3339461625
C    -1.8460874921    -3.3608886299    -0.5266286401
C    -0.5737117451    -3.0239322088    -0.0170348784
C     4.7614155143    -4.4112350470     2.2460014034
C     4.3832959475    -5.6822514912     2.5742773551
C     3.1411652251    -6.1773461955     2.1500115128
C     2.3116644713    -5.4079379142     1.3821044518
C     1.5839130909    -5.5720638100    -1.6634739569
C     1.4427580606    -6.6398239972    -2.5059168327
C     0.1710251903    -7.0421033467    -2.9401548569
C    -0.9375719911    -6.3476104835    -2.5464427088
C     3.7713131362    -0.0220231609     0.2077204405
C     4.1818217199     0.7842250352     1.2660533509
C     4.4603584200     2.1211476977     1.0622784734
C     4.3365493972     2.6835787047    -0.2047439578
C     3.9431697978     1.8725821756    -1.2651252401
C     3.6640239797     0.5355618500    -1.0632829365
C    -2.9887771197    -2.4827740821    -0.2390548533
C    -3.7516428938    -1.9857871312    -1.2913652949
C    -4.7757918883    -1.0926982473    -1.0503413002
C    -5.0697215987    -0.6908703077     0.2484278326
C    -4.3299490921    -1.2153910533     1.3025642841
C    -3.2942894087    -2.0966920072     1.0619515377
O     1.3758313727    -1.1335054181    -0.7537353737
O    -0.4497661818    -1.9011485913     0.7927152966
P     0.0763821586    -0.6022500617     0.0009494942
O    -0.8670528560     0.0774070802    -0.8739381939
O     0.6172994939     0.2679493106     1.2185217089
H     5.2150598646    -1.8694726120     1.5355680504
H    -2.9214373790    -4.7478421234    -1.7237175687
H     5.7064558423    -4.0121863897     2.5852266163
H     5.0295583208    -6.3080603011     3.1717213535
H     2.8407284122    -7.1738037177     2.4379752317
H     1.3530269154    -5.7918005403     1.0685747046
H     2.5666532161    -5.2623322064    -1.3425177565
H     2.3147172259    -7.1787873135    -2.8455763267
H     0.0780056813    -7.8938793372    -3.5974444061
H    -1.9197808541    -6.6347513179    -2.8930101847
H     4.2562827484     0.3620952904     2.2576550864
H     4.7625411542     2.7452925309     1.8912956254
H     3.8587165163     2.2994020838    -2.2541243576
H     3.3659458078    -0.0834043513    -1.8956380241
H    -3.5122394602    -2.2756206306    -2.3037083838
H    -5.3510884237    -0.6904101176    -1.8716610463
H    -4.5615207287    -0.9126852720     2.3140520271
H    -2.7185181544    -2.4918337818     1.8856686453
H     0.0772948447     1.0505215645     1.3167040822
C     4.6035460443     4.1203055239    -0.4192553329
C     3.5403781625     4.9802543404    -0.7350508569
C     5.9115919735     4.6141032136    -0.3054208172
C     3.7992038644     6.3708372972    -0.9453017682
C     2.1991292403     4.5247749255    -0.8331816450
C     6.1586800129     6.0080230858    -0.5068165401
C     7.0176087470     3.7714384750    -0.0193199578
C     2.7167110890     7.2285763503    -1.2692774978
C     5.0990255421     6.8517718130    -0.8236003784
C     1.1874398640     5.3812600160    -1.1436854103
H     1.9893484428     3.4799834134    -0.6561117284
C     7.4858328083     6.4939688117    -0.3839750374
C     8.2773281168     4.2762502393     0.0867367452
H     6.8423759047     2.7132961600     0.1076311598
C     1.4478512036     6.7486581611    -1.3703951478
H     2.9271646509     8.2761418142    -1.4324252032
H     5.2900313987     7.9046789253    -0.9794204215
H     0.1730312128     5.0178242903    -1.2180425228
H     7.6582341266     7.5505903119    -0.5326638294
C     8.5157024016     5.6549095138    -0.0911460860
H     9.1093279525     3.6224496228     0.3047001857
H     0.6292969487     7.4083091696    -1.6188587259
H     9.5236056177     6.0326367862     0.0005655077
C    -6.1374416577     0.3004358530     0.4997369092
C    -7.3709190628    -0.1124453513     1.0210240194
C    -5.8984266719     1.6516788688     0.2107197397
C    -8.3958978990     0.8560601263     1.2573790708
C    -7.6501214933    -1.4737517722     1.3105631547
C    -6.9307258328     2.6130831446     0.4455421945
C    -4.6516444592     2.1070732612    -0.2942755491
C    -9.6389928721     0.4208847106     1.7845615428
C    -8.1528681531     2.1937049679     0.9622851020
C    -8.8570738869    -1.8507629215     1.8142488905
H    -6.8821127079    -2.2090680618     1.1195286271
C    -6.6763874874     3.9762553327     0.1465735142
C    -4.4482133187     3.4259508728    -0.5643931109
H    -3.8606822066     1.3902442830    -0.4602004447
C    -9.8635582813    -0.8927732593     2.0576788124
H   -10.4058742314     1.1616420123     1.9624603458
H    -8.9309097887     2.9238354996     1.1388732788
H    -9.0570627437    -2.8902364233     2.0305232577
H    -7.4655021107     4.6937554765     0.3228585195
C    -5.4716620479     4.3718717915    -0.3464792183
H    -3.4954920254     3.7583624728    -0.9495664747
H   -10.8132683052    -1.2158642672     2.4587391262
H    -5.2863542667     5.4122702180    -0.5716270543
