78
-165.72220822
C    -2.5931474915    -3.3877405324    -1.3827700616
C    -1.2234622181    -3.4465740462    -1.1194689983
C    -0.6430385587    -2.4700772783    -0.3048134719
C    -1.3996594742    -1.3797918655     0.1212323852
C    -2.7543146433    -1.2807174493    -0.1863555052
C    -3.3364639949    -2.3195014286    -0.9051335362
C     0.7870050195    -2.4958093553     0.0870634794
C     1.3249590386    -3.4708330706     0.9352151365
C     2.6746534826    -3.3910391810     1.2789638131
C     3.4367659962    -2.3169903321     0.8390923046
C     2.8973118982    -1.2963153026     0.0650925733
C     1.5673451281    -1.4239130204    -0.3298350055
C    -3.2989539082    -4.4762943824    -2.1455269413
C    -2.3604702612    -5.3090757334    -3.0115662654
C    -1.1376147742    -5.7134716961    -2.1991463707
C    -0.3596460209    -4.4603199697    -1.8158282600
C     0.4324182676    -4.5314701789     1.5200467486
C     1.0388139511    -5.1521979927     2.7735646898
C     2.4546172017    -5.6155411385     2.4581573327
C     3.3295366476    -4.3976161806     2.1868045796
C    -3.5301447417    -0.0939056182     0.1950744765
C    -3.4256262104     0.4587684300     1.4696581714
C    -4.1584788392     1.5876777215     1.7967086469
C    -5.0011509001     2.1935251579     0.8739344515
C    -5.0993861018     1.6375301176    -0.3919390832
C    -4.3767669294     0.5041034258    -0.7334826238
C     3.6356868218    -0.0656955727    -0.2367316176
C     4.4097318637     0.5362505215     0.7532021227
C     5.0327132443     1.7481290687     0.5098168229
C     4.8902389229     2.3987106675    -0.7087337308
C     4.1281996746     1.7883221086    -1.6913678771
C     3.5181666687     0.5620851750    -1.4722228749
O    -0.7696641620    -0.3467341910     0.8071216321
O     0.9383360682    -0.4128329422    -1.0479070888
P     0.1822914500     0.6095258501    -0.0465627856
O     1.0448798420     1.4527584157     0.7645672896
O    -0.7994039491     1.3470843153    -1.0515710895
H    -4.3957444244    -2.2788465882    -1.1120060309
H     4.4745602878    -2.2575275500     1.1320277052
H    -3.7836675053    -5.1304084603    -1.4127476987
H    -2.8876587826    -6.1912570220    -3.3780004380
H    -1.4547812692    -6.2449390209    -1.2993048856
H     0.0123899345    -3.9845090142    -2.7304188578
H    -0.5435858652    -4.0931773962     1.7404368759
H     1.0666136017    -4.4154703666     3.5782175925
H     2.8690409964    -6.1870723423     3.2896267328
H     4.2837080048    -4.7045523464     1.7524890155
H    -2.7809989105     0.0031247204     2.2046386240
H    -5.5647982149     3.0749207151     1.1382168949
H    -4.4551896188     0.0996511094    -1.7312117908
H     4.4956390884     0.0738923743     1.7241578153
H     5.3556613174     3.3568778205    -0.8806872977
H     2.9489201112     0.1016610089    -2.2645023344
H    -0.4326433647     2.1868847837    -1.3276488616
C    -6.0186942073     2.2397493089    -1.4200969881
C    -4.0389922679     2.2024446293     3.1659530336
C     5.9006042189     2.3788050650     1.5657058217
C     3.8898416179     2.4639308330    -3.0127740265
F    -7.1359436525     1.5030091375    -1.5776924563
F    -5.4482698824     2.3086743238    -2.6335966007
F    -6.4203816153     3.4765689662    -1.1118303247
F    -3.4863155261     1.3796325625     4.0644261947
F    -5.2345498931     2.5623226861     3.6629429593
F    -3.2899924713     3.3176260780     3.1507797982
F     7.2093212635     2.1546696897     1.3216211190
F     5.6675736875     1.9032425904     2.7943094566
F     5.7582067488     3.7085014789     1.6278244546
F     4.6601010970     3.5370301747    -3.2140254870
F     4.0990933938     1.6396998448    -4.0534330689
F     2.6124797410     2.8831979653    -3.1270381555
H    -4.0901066719    -4.0402727297    -2.7581944500
H    -2.0412002489    -4.7252268059    -3.8769106499
H    -0.4981910418    -6.3807044391    -2.7791266308
H     0.5163225401    -4.7077671234    -1.2192354902
H     0.2683389703    -5.3264659596     0.7874511411
H     0.4223661089    -5.9901955684     3.1019657725
H     2.4358070768    -6.2651968805     1.5805512483
H     3.5541628930    -3.8989869463     3.1346899435
