102
-166.33980206
C     4.4128118191    -3.6591753133     1.0343674931
C     3.1284080638    -4.2409908330     0.8632003124
C     2.1267656084    -3.5053522658     0.1701610816
C     2.4075775181    -2.2251167143    -0.2530966182
C     3.6639397065    -1.6150517946    -0.0340496066
C     4.6485019301    -2.3468258908     0.5803727143
C     0.7660969430    -4.0343391358    -0.0613907664
C     0.5186899088    -5.2406945488    -0.7743354844
C    -0.8264102617    -5.6538880316    -0.9716332547
C    -1.8812789358    -4.8265854387    -0.5385962749
C    -1.6409101637    -3.6358177049     0.0999607049
C    -0.3010837628    -3.2790486904     0.3704636676
C     5.4145422133    -4.3951852617     1.7025450088
C     5.1516795991    -5.6352154109     2.2121306576
C     3.8675078125    -6.1863049692     2.0906604865
C     2.8789320188    -5.5065605600     1.4344874487
C     1.5527232954    -6.0157900130    -1.3399670008
C     1.2735956705    -7.1739526105    -2.0113781899
C    -0.0508813549    -7.6119930428    -2.1565990709
C    -1.0774601400    -6.8623518818    -1.6559811978
C     3.8085710564    -0.1898548405    -0.3647333817
C     3.4090120286     0.3129239135    -1.5998161304
C     3.3473740514     1.6759401524    -1.8101103871
C     3.6884651964     2.5630451605    -0.7945449308
C     4.1737497678     2.0600098431     0.4077778395
C     4.2327512130     0.6969159107     0.6211037647
C    -2.6872848548    -2.6433191199     0.3813212700
C    -2.7803220833    -2.0019774233     1.6122690824
C    -3.6415335875    -0.9356762263     1.7792803534
C    -4.4196640287    -0.4825855347     0.7191589378
C    -4.3741398022    -1.1675807443    -0.4910790184
C    -3.5219218321    -2.2392905130    -0.6570220186
O     1.4177302184    -1.4788333917    -0.8853978355
O    -0.0519098916    -2.0850432444     1.0361885256
P     0.2777337739    -0.8642039082     0.0423026310
O    -0.8228638153    -0.2729833065    -0.7043139633
O     1.0109498959     0.1223219737     1.0512662042
H     5.6203257183    -1.9037029458     0.7429867034
H    -2.8986843328    -5.1270406071    -0.7429343661
H     6.3932306663    -3.9506573805     1.8121371038
H     5.9233346452    -6.1912120350     2.7236315544
H     3.6619334727    -7.1539330891     2.5237104700
H     1.8905577931    -5.9323366001     1.3545548881
H     2.5738445884    -5.6806345171    -1.2422971144
H     2.0757594714    -7.7574954162    -2.4381859832
H    -0.2520224862    -8.5349553312    -2.6799351995
H    -2.1030483433    -7.1766655814    -1.7852517089
H     3.1231607862    -0.3667036419    -2.3880695637
H     3.0002481801     2.0630214041    -2.7570504553
H     4.4647210823     2.7460139817     1.1904858864
H     4.5570588549     0.3126925759     1.5771698466
H    -2.1653224649    -2.3324599793     2.4361717491
H    -3.6884743623    -0.4212626743     2.7289576209
H    -4.9939402213    -0.8349846818    -1.3111694767
H    -3.4576398822    -2.7366380291    -1.6135877047
H     0.4817896835     0.9097351032     1.1742706145
C     3.4462089198     4.0132676671    -0.9553614025
C     2.1369512459     4.4882216521    -0.7869376953
C     4.4942108550     4.8937383658    -1.2459543227
C     1.8742508949     5.8876173793    -0.9140541338
C     1.0554279018     3.6243793143    -0.4697433913
C     4.2233387840     6.2916492452    -1.3775414933
C     5.8274073254     4.4416137749    -1.4258098273
C     0.5465552100     6.3523094379    -0.7266392552
C     2.9220081875     6.7549043653    -1.2096219356
C    -0.2018827536     4.1115384280    -0.2833744734
H     1.2465406789     2.5643183096    -0.3841079412
C     5.2983686262     7.1682829571    -1.6748001817
C     6.8307254957     5.3161655841    -1.7096604305
H     6.0275552833     3.3837741413    -1.3341657371
C    -0.4612158750     5.4918289301    -0.4172938443
H     0.3573805256     7.4113119449    -0.8322171231
H     2.7212319342     7.8130586724    -1.3065123248
H    -1.0155653078     3.4444165871    -0.0388816969
H     5.0855497192     8.2235503098    -1.7719045346
C     6.5643303388     6.6961385226    -1.8344905123
H     7.8422923823     4.9616909918    -1.8443459011
H    -1.4691472697     5.8516012869    -0.2708408298
H     7.3770740951     7.3710244499    -2.0602979552
C    -5.2424496781     0.7356828532     0.8569963841
C    -4.8704548670     1.8901464459     0.1491427590
C    -6.3738520232     0.7375946686     1.6850657511
C    -5.6648001656     3.0734072082     0.2722707813
C    -3.7183104944     1.9353048738    -0.6811654357
C    -7.1518173738     1.9304188135     1.8135691503
C    -6.7969858130    -0.4195352017     2.3901151243
C    -5.2919504970     4.2298282384    -0.4602867123
C    -6.7808297007     3.0675002212     1.1035111197
C    -3.4032834653     3.0633719843    -1.3769865397
H    -3.0839684156     1.0642442978    -0.7540948213
C    -8.2912351170     1.9173542889     2.6585904877
C    -7.8991648910    -0.3922823753     3.1884118923
H    -6.2271351638    -1.3300736333     2.2765197741
C    -4.1988538663     4.2230640825    -1.2701873386
H    -5.9026738041     5.1162981921    -0.3598522854
H    -7.3755504311     3.9660739494     1.1964619552
H    -2.5334873532     3.0779930681    -2.0170723541
H    -8.8678405776     2.8268989259     2.7524282139
C    -8.6533010870     0.7912745058     3.3303885688
H    -8.2097645666    -1.2806150018     3.7191811336
H    -3.9255053302     5.1044041074    -1.8327143329
H    -9.5228026887     0.7893756305     3.9715945016
