78
-165.72159616
C    -2.6329749791    -3.4136765498    -1.3860897256
C    -1.2767253395    -3.5277231090    -1.0814589974
C    -0.6689308148    -2.5447383514    -0.2902191352
C    -1.4026729427    -1.4382799843     0.1315359955
C    -2.7522488976    -1.3054072257    -0.1869330778
C    -3.3487756622    -2.3152753839    -0.9311500042
C     0.7725567692    -2.5759250038     0.0516817411
C     1.3697132080    -3.5730040308     0.8187590333
C     2.7335940275    -3.4947061914     1.1134290884
C     3.4769759983    -2.4050191438     0.7025530829
C     2.8882796161    -1.3681984799    -0.0194305725
C     1.5453793325    -1.4919443989    -0.3673803589
C    -3.3488453873    -4.4140254982    -2.2537316096
C    -2.5345607020    -5.6760272325    -2.5112806518
C    -1.1057812428    -5.2850852741    -2.8631319102
C    -0.4522688944    -4.6542139219    -1.6386435119
C     0.6152941186    -4.6734970653     1.4956266074
C     0.9817285403    -4.6372134932     2.9852543650
C     2.4883274863    -4.8348500628     3.2105760450
C     3.3074782743    -4.6107124774     1.9275859967
C    -3.4998311886    -0.1032372120     0.2037034548
C    -3.4068475298     0.4151218240     1.4934519955
C    -4.1072816470     1.5613424006     1.8302247661
C    -4.9050437534     2.2181771422     0.9021695424
C    -4.9964901718     1.6925094719    -0.3770606776
C    -4.3020085647     0.5450315270    -0.7300285181
C     3.6010717235    -0.1188868489    -0.3093629886
C     4.3901345663     0.4681199966     0.6776905066
C     4.9850289302     1.6978386665     0.4545355969
C     4.7977944727     2.3817067354    -0.7394548671
C     4.0227205945     1.7853767748    -1.7203608620
C     3.4426265302     0.5409766908    -1.5232375637
O    -0.7599875799    -0.4201213048     0.8292162106
O     0.9022449733    -0.4691055119    -1.0536103308
P     0.1737172063     0.5484544419    -0.0285659335
O     1.0551792617     1.3808223536     0.7735608444
O    -0.8248204743     1.2990169470    -1.0068456421
H    -4.3983563862    -2.2339988994    -1.1729424948
H     4.5239956861    -2.3407916790     0.9578173888
H    -4.3068403613    -4.6674982881    -1.7943235301
H    -2.5278395436    -6.3042950290    -1.6182603270
H    -0.5322866130    -6.1594642752    -3.1739904374
H     0.5462916252    -4.2847229951    -1.8811329029
H    -0.4599816019    -4.5424661613     1.3748053831
H     0.6735153022    -3.6677131075     3.3800974358
H     2.8306557532    -4.1378209571     3.9756008364
H     3.2799521368    -5.5240478310     1.3264080140
H    -2.7954994590    -0.0802020107     2.2312483377
H    -5.4457805279     3.1112406935     1.1752208628
H    -4.3731259725     0.1640615654    -1.7374467667
H     4.5086425554    -0.0202026222     1.6324386799
H     5.2393070468     3.3540616194    -0.8938855649
H     2.8639606951     0.0924183842    -2.3154859035
H    -0.4628782700     2.1404557327    -1.2845554520
C    -5.8258046649     2.3838019240    -1.4254719739
C    -4.0102450290     2.1403325991     3.2166702411
C     5.8686017238     2.3139016702     1.5059525134
C     3.7330747899     2.4956825767    -3.0128385528
F    -5.0637031686     3.0970246250    -2.2750746456
F    -6.7221235437     3.2336918257    -0.9135784756
F    -6.5110091000     1.5118386451    -2.1840792698
F    -3.4000873107     1.3282218451     4.0863490892
F    -5.2224050096     2.4098659263     3.7329116822
F    -3.3339228040     3.3006945896     3.2292382429
F     7.1744952002     2.1273040338     1.2184541175
F     5.6812091036     1.7941719085     2.7244655574
F     5.6993956628     3.6373590178     1.6153114405
F     4.4669193362     3.5967264386    -3.1975156482
F     3.9386936014     1.7119352135    -4.0849550082
F     2.4414111345     2.8808596627    -3.0815170187
H    -3.5705088210    -3.9292550296    -3.2097496053
H    -2.9903496330    -6.2480392471    -3.3205668502
H    -1.1141003704    -4.5735384705    -3.6906554613
H    -0.3351635762    -5.4265253203    -0.8745858197
H     0.9022974682    -5.6443939652     1.0827245147
H     0.4178996408    -5.4042882889     3.5168695704
H     2.6876169006    -5.8434011205     3.5752535260
H     4.3487915459    -4.4114089467     2.1795843210
