102
-166.33968794
C     4.4662996502    -3.6855479740     0.9404909447
C     3.1747303204    -4.2634843496     0.8156156009
C     2.1548551529    -3.5314788516     0.1448294369
C     2.4287267477    -2.2572611108    -0.3011405851
C     3.6904914255    -1.6461762063    -0.1165156370
C     4.6910396743    -2.3757133853     0.4736982085
C     0.7848815438    -4.0570687059    -0.0353740471
C     0.5087877443    -5.2783245638    -0.7117510257
C    -0.8434412895    -5.6930381462    -0.8478714411
C    -1.8803076060    -4.8508781185    -0.4005852041
C    -1.6150915278    -3.6431728759     0.1955439735
C    -0.2650711561    -3.2878147438     0.4146097384
C     5.4869332667    -4.4203560343     1.5807610841
C     5.2365311773    -5.6550677827     2.1091308081
C     3.9462729827    -6.2004070215     2.0370102368
C     2.9390725207    -5.5217764525     1.4085252312
C     1.5191755196    -6.0687343013    -1.2985294308
C     1.2132131015    -7.2429815465    -1.9290989795
C    -0.1161166944    -7.6829035751    -2.0103585341
C    -1.1218438619    -6.9186122741    -1.4900255815
C     3.8170501679    -0.2177783336    -0.4415424139
C     4.2404310178     0.6648718447     0.5485543471
C     4.1437608215     2.0289452057     0.3573913952
C     3.6204635775     2.5380974518    -0.8267061359
C     3.2891372932     1.6570755498    -1.8514709054
C     3.3882741723     0.2930137081    -1.6634066807
C    -2.6466019187    -2.6334108242     0.4693105329
C    -2.6875154008    -1.9224749913     1.6646837332
C    -3.5274894839    -0.8350831948     1.8013616232
C    -4.3421006498    -0.4324755130     0.7479719287
C    -4.3553935603    -1.1913264811    -0.4187575837
C    -3.5203605572    -2.2801738142    -0.5558548836
O     1.4275799822    -1.5162262046    -0.9207426893
O     0.0101842565    -2.0824118327     1.0477802989
P     0.3103164870    -0.8816631544     0.0219188626
O    -0.8068357440    -0.3071357068    -0.7132488470
O     1.0623819450     0.1239699941     0.9966503275
H     5.6669162091    -1.9322775650     0.6088743320
H    -2.9047908287    -5.1536895152    -0.5614371230
H     6.4704857650    -3.9790347614     1.6536396282
H     6.0228680876    -6.2105538518     2.5983273305
H     3.7508203591    -7.1628496737     2.4860062676
H     1.9467301536    -5.9436457653     1.3672300720
H     2.5434842688    -5.7326118401    -1.2499105371
H     1.9975789721    -7.8381325936    -2.3726144391
H    -0.3381440652    -8.6189705270    -2.5009520694
H    -2.1519655748    -7.2341883495    -1.5713537106
H     4.5901689232     0.2747188889     1.4931867447
H     4.4292867935     2.7097039240     1.1466884918
H     2.9174463417     2.0490175603    -2.7870714884
H     3.1057445299    -0.3818018928    -2.4570487008
H    -2.0476733042    -2.2140916461     2.4841910219
H    -3.5267679212    -0.2639476278     2.7192645430
H    -5.0070032685    -0.9022428275    -1.2307255918
H    -3.4996922669    -2.8317529993    -1.4842686126
H     0.5499229585     0.9262058544     1.0934675229
C     3.3213182952     3.9802958482    -0.9504804268
C     1.9817080382     4.3885281149    -0.8529254232
C     4.3437451317     4.9210340237    -1.1218364226
C     1.6619774555     5.7796495421    -0.9329025395
C     0.9220900827     3.4666270901    -0.6442196656
C     4.0157489522     6.3104823294    -1.2044445760
C     5.7065817649     4.5400898554    -1.2301200669
C     0.3044376626     6.1770590969    -0.8167798064
C     2.6851256353     6.7062925588    -1.1105624717
C    -0.3658527585     3.8891251540    -0.5196082481
H     1.1518906621     2.4123392785    -0.5921314882
C     5.0650509383     7.2495277884    -1.3765212773
C     6.6838603804     5.4730043227    -1.3941465278
H     5.9519171545     3.4890153640    -1.1821150588
C    -0.6808790967     5.2609195074    -0.6128717036
H     0.0743375997     7.2307507843    -0.8891186048
H     2.4413342103     7.7581514971    -1.1700944438
H    -1.1593722130     3.1749017836    -0.3567991825
H     4.8080269689     8.2977539462    -1.4354706764
C     6.3608118680     6.8445340356    -1.4654448594
H     7.7181946549     5.1716502677    -1.4741674817
H    -1.7122270874     5.5684429788    -0.5198094231
H     7.1537890446     7.5666169620    -1.5949439979
C    -5.1394977362     0.8058516132     0.8402701445
C    -4.8153907084     1.8860025885     0.0020756899
C    -6.2006373496     0.9026728569     1.7524807971
C    -5.5912347142     3.0856971457     0.0732194508
C    -3.7271101174     1.8427350358    -0.9103670127
C    -6.9533531398     2.1158767134     1.8327407912
C    -6.5794697068    -0.1775633984     2.5919823019
C    -5.2741807882     4.1621327826    -0.7949722141
C    -6.6350977513     3.1747499662     0.9889496630
C    -3.4631128033     2.8958420052    -1.7335785615
H    -3.0963604173     0.9666208590    -0.9404440235
C    -8.0163153807     2.2031506926     2.7681233361
C    -7.6086951796    -0.0553274030     3.4744837996
H    -6.0359205471    -1.1076030142     2.5141961123
C    -4.2476729881     4.0665916399    -1.6826277137
H    -5.8727789683     5.0603676317    -0.7334008903
H    -7.2142504513     4.0865470089     1.0434502069
H    -2.6398769169     2.8433889891    -2.4307385761
H    -8.5719427084     3.1287139284     2.8243805702
C    -8.3322467208     1.1515453361     3.5709742621
H    -7.8844129849    -0.8858551485     4.1081399158
H    -4.0166817079     4.8865665934    -2.3475939211
H    -9.1424905224     1.2262521298     4.2816576607
