78
-165.72138687
C    -2.6517027424    -3.4191635097    -1.3973992117
C    -1.2940121272    -3.5435664965    -1.1033996597
C    -0.6726693717    -2.5663874991    -0.3150525866
C    -1.3952324629    -1.4544272650     0.1128515660
C    -2.7443562728    -1.3072669541    -0.2021341872
C    -3.3542737349    -2.3130292404    -0.9410143055
C     0.7712770267    -2.6101769531     0.0156602645
C     1.3692143770    -3.6180878790     0.7681985026
C     2.7365697105    -3.5516397874     1.0500670973
C     3.4819912952    -2.4598127659     0.6488427975
C     2.8925296371    -1.4106273013    -0.0543417273
C     1.5478672063    -1.5269353895    -0.3988657700
C    -3.3838551401    -4.4153520682    -2.2563181675
C    -2.5798019591    -5.6814749489    -2.5253836944
C    -1.1523630929    -5.2979544830    -2.8905132131
C    -0.4832220257    -4.6751243325    -1.6703424123
C     0.6144845016    -4.7189305041     1.4442807473
C     0.9992292086    -4.6990251603     2.9296158312
C     2.5063336555    -4.9136937651     3.1345102593
C     3.3119046040    -4.6810717108     1.8444557661
C    -3.4754401616    -0.0920401746     0.1797257150
C    -3.3683863942     0.4428410546     1.4606524183
C    -4.0486579621     1.6061354311     1.7840652422
C    -4.8388241289     2.2599284974     0.8495517006
C    -4.9436439840     1.7175342314    -0.4238695239
C    -4.2731128916     0.5538162448    -0.7616385255
C     3.5984297298    -0.1508345143    -0.3140960770
C     4.3821706443     0.4146552552     0.6897895264
C     4.9545552911     1.6616614557     0.5084974790
C     4.7466123535     2.3859518729    -0.6578896226
C     3.9794863587     1.8101407019    -1.6569613301
C     3.4263355194     0.5473115118    -1.5044084493
O    -0.7432358458    -0.4452544036     0.8146639561
O     0.9068016675    -0.4952599230    -1.0738010989
P     0.1995021286     0.5219261664    -0.0340920924
O     1.0957947739     1.3308353676     0.7756601166
O    -0.7896572249     1.3014628590    -0.9991011032
H    -4.4042752436    -2.2226781494    -1.1775683818
H     4.5307492424    -2.4031632034     0.8986684952
H    -4.3368837760    -4.6641663888    -1.7840983486
H    -2.5677914181    -6.3122460142    -1.6341843837
H    -0.5871973016    -6.1747217607    -3.2097785227
H     0.5161000331    -4.3129530124    -1.9205133110
H    -0.4610845744    -4.5782744418     1.3378966030
H     0.7056006789    -3.7299706747     3.3364659360
H     2.8643519536    -4.2295714122     3.9039824032
H     3.2703056909    -5.5872268685     1.2333290039
H    -2.7627980092    -0.0514591154     2.2038354061
H    -5.3622657263     3.1680495976     1.1067946667
H    -4.3502227907     0.1579262743    -1.7625462992
H     4.5118336587    -0.1040486992     1.6268971256
H     5.1653420400     3.3732287553    -0.7769309101
H     2.8550971025     0.1164398420    -2.3116800130
H    -0.4117223615     2.1394306103    -1.2663439524
C    -5.8111529363     2.4259755390    -1.4294595597
C    -3.9206914470     2.2045330222     3.1596585070
C     5.8304701354     2.2559044467     1.5786905118
C     3.6602424492     2.5640377015    -2.9170453807
F    -5.7496799043     1.8845014226    -2.6526042091
F    -5.4776677592     3.7190082207    -1.5644437688
F    -7.1078836854     2.4080674607    -1.0721537742
F    -3.1021566861     3.2697059220     3.1681559689
F    -3.4401476178     1.3429338244     4.0636122143
F    -5.1010634912     2.6365785174     3.6342465942
F     5.6604346955     1.6862310651     2.7773426012
F     5.6342690084     3.5702720806     1.7393343526
F     7.1385549826     2.1080121963     1.2786726442
F     4.3552487093     3.6958803403    -3.0586980930
F     3.8834500201     1.8340190273    -4.0228457151
F     2.3551893892     2.9085191554    -2.9618921122
H    -3.6158673264    -3.9288469178    -3.2089635901
H    -3.0472053719    -6.2486056726    -3.3314677518
H    -1.1647737959    -4.5836788179    -3.7156071426
H    -0.3658871099    -5.4507133759    -0.9097958040
H     0.8888204257    -5.6884211339     1.0196254677
H     0.4343215696    -5.4650974611     3.4615156307
H     2.7003690097    -5.9285867266     3.4841163199
H     4.3576284716    -4.4922819129     2.0860470499
