102
-166.33948712
C     4.1841932375    -3.6992483800     1.5289491789
C     2.9725188404    -4.2901543240     1.0807501148
C     2.0918403561    -3.5226288610     0.2679812211
C     2.4089487394    -2.2107021721    -0.0074322221
C     3.5787367826    -1.5937327962     0.4910990009
C     4.4546741891    -2.3499603624     1.2275600271
C     0.8063353244    -4.0512672472    -0.2365987686
C     0.7107485509    -5.2074011338    -1.0605384441
C    -0.5712282406    -5.6178058387    -1.5162981321
C    -1.7043397273    -4.8354530863    -1.2159116252
C    -1.6033602912    -3.6922850039    -0.4643955954
C    -0.3367533540    -3.3409002590     0.0534622950
C     5.0716877935    -4.4669401384     2.3128905044
C     4.7626699952    -5.7487523581     2.6705537228
C     3.5405346991    -6.3122648998     2.2752634010
C     2.6651701973    -5.6010472415     1.5020338152
C     1.8434871035    -5.9304131430    -1.4894058255
C     1.7098251308    -7.0401789613    -2.2771900260
C     0.4401051443    -7.4788152674    -2.6802587268
C    -0.6735618470    -6.7764790873    -2.3153996043
C     3.7306681529    -0.1436433017     0.2965648323
C     3.5910692076     0.4403846780    -0.9589260853
C     3.5445890583     1.8143873830    -1.0881469379
C     3.6262879759     2.6327943733     0.0338741712
C     3.8358370118     2.0499233016     1.2799407271
C     3.8936322492     0.6764960873     1.4095851768
C    -2.6988018686    -2.7282569074    -0.2845075584
C    -3.3367386928    -2.2134850797    -1.4090831198
C    -4.1982117329    -1.1410711333    -1.2935695834
C    -4.4459467812    -0.5692593859    -0.0512076902
C    -3.8773049572    -1.1402679870     1.0819116711
C    -3.0084709351    -2.2070644657     0.9676312643
O     1.5391771313    -1.4385529381    -0.7695903318
O    -0.2307412380    -2.1851124619     0.8200995567
P     0.2142628653    -0.9140041892    -0.0597137038
O    -0.7525403803    -0.3546043048    -0.9922002522
O     0.6795942035     0.0781729989     1.0919676004
H     5.3615391857    -1.9006194746     1.6056862948
H    -2.6643777215    -5.1308671880    -1.6135584094
H     5.9989541833    -4.0140231322     2.6330436062
H     5.4473448699    -6.3293755590     3.2708047459
H     3.2920128637    -7.3150802339     2.5894177911
H     1.7222574300    -6.0378339564     1.2111405284
H     2.8246250541    -5.5931086354    -1.1923207827
H     2.5860479484    -7.5843357444    -2.5969936249
H     0.3522564806    -8.3639223486    -3.2926820733
H    -1.6542680164    -7.0907409204    -2.6421591190
H     3.5008503448    -0.1858388009    -1.8334736788
H     3.4058673251     2.2621949994    -2.0615542381
H     3.9259714359     2.6819814035     2.1519460677
H     4.0139299714     0.2294047125     2.3856192400
H    -3.1051031746    -2.6192902229    -2.3826416430
H    -4.6544749342    -0.7138775388    -2.1745651578
H    -4.0927830095    -0.7174715069     2.0532032700
H    -2.5503262701    -2.6275147423     1.8507416005
H     0.0799365438     0.8234310270     1.1229669292
C     3.4213911450     4.0912022451    -0.0913481947
C     4.4020623004     4.9022659257    -0.6773046890
C     2.2145470934     4.6450152753     0.3635644090
C     4.1685014320     6.3067166425    -0.8102277176
C     5.6396558746     4.3781731300    -1.1336458494
C     1.9905842853     6.0507474205     0.2304547949
C     1.1861771060     3.8513058184     0.9372402051
C     5.1713457258     7.1126720611    -1.4078569394
C     2.9711220122     6.8475366098    -0.3525378449
C     6.5769085818     5.1859813099    -1.7007086318
H     5.8248417586     3.3201342536    -1.0188623552
C     0.7649932576     6.5951452322     0.6939357382
C     0.0234406566     4.4122244879     1.3700032079
H     1.3455656191     2.7862062612     1.0231647575
C     6.3398550214     6.5692513901    -1.8437555984
H     4.9829913633     8.1723322972    -1.5072955569
H     2.7978216096     7.9100457752    -0.4541530419
H     7.5145738659     4.7747992269    -2.0452592355
H     0.6088034924     7.6597641189     0.5914704020
C    -0.1894509703     5.8015564530     1.2506609989
H    -0.7532340563     3.7998766886     1.8055151744
H     7.0979727128     7.1898857657    -2.2987030288
H    -1.1196622608     6.2223645783     1.6032670881
C    -5.2420640805     0.6726758715     0.0704638694
C    -6.6090622867     0.6186857477     0.3655141713
C    -4.5918086172     1.9047498812    -0.0918624419
C    -7.3478671587     1.8342999894     0.5107697376
C    -7.2954757772    -0.6138485754     0.5209714933
C    -5.3347220528     3.1164758815     0.0661860250
C    -3.2098221610     1.9927430084    -0.4083728445
C    -8.7336021166     1.7581788026     0.8047216505
C    -6.6928659701     3.0529583451     0.3641115438
C    -8.6268245130    -0.6434296324     0.8014495288
H    -6.7348832063    -1.5306477603     0.4078031267
C    -4.6603761143     4.3556201168    -0.0865519661
C    -2.6037502703     3.2035863821    -0.5537084083
H    -2.6444380287     1.0838839025    -0.5495065058
C    -9.3554095158     0.5563125396     0.9455820562
H    -9.2848722211     2.6818086985     0.9123743695
H    -7.2518986045     3.9711981378     0.4828081685
H    -9.1402243064    -1.5871472426     0.9156374362
H    -5.2305917825     5.2657245387     0.0379289805
C    -3.3338177380     4.3990153925    -0.3863765144
H    -1.5543111941     3.2579971722    -0.8047706105
H   -10.4115844444     0.5077401079     1.1678309245
H    -2.8257962172     5.3453176330    -0.5047006642
