78
-165.72118824
C    -2.5960642837    -3.3420020189    -1.4484986969
C    -1.2402429474    -3.4400189693    -1.1295491664
C    -0.6505734796    -2.4752859028    -0.3130570202
C    -1.4119360046    -1.3821975920     0.1028266606
C    -2.7566556112    -1.2592401164    -0.2389932429
C    -3.3429824687    -2.2716529481    -0.9953620612
C     0.7841982363    -2.5029819642     0.0564124377
C     1.3594661996    -3.5160092886     0.8295266400
C     2.7281933443    -3.4636272777     1.1016217863
C     3.4713464608    -2.3684663207     0.6866005609
C     2.8972588225    -1.3080456818    -0.0067865241
C     1.5533078843    -1.4189362450    -0.3558822350
C    -3.1753989672    -4.4535596975    -2.2664847561
C    -2.7083865879    -5.7802795600    -1.6609101826
C    -1.1797237457    -5.9061334437    -1.6993265129
C    -0.4755829629    -4.5401902687    -1.8003035984
C     0.4919126061    -4.5692994822     1.4600209210
C     1.2762757115    -5.8277886080     1.8116478353
C     2.4845032201    -5.4432332830     2.6547268144
C     3.4301909759    -4.5792040543     1.8282261025
C    -3.5192502749    -0.0643539977     0.1451778669
C    -3.4500883565     0.4516610739     1.4374348569
C    -4.1661313436     1.5903938408     1.7667022985
C    -4.9566325842     2.2421739767     0.8288897011
C    -5.0245380637     1.7188666043    -0.4526926476
C    -4.3143055692     0.5787593707    -0.7982997382
C     3.6205934097    -0.0601509542    -0.2723594376
C     3.4551387747     0.6326216264    -1.4669056615
C     4.0421270962     1.8777251388    -1.6371408202
C     4.8329266925     2.4418173966    -0.6497979627
C     5.0284628082     1.7245391285     0.5231912390
C     4.4254569357     0.4943884287     0.7208375765
O    -0.7903150671    -0.3640154200     0.8191041762
O     0.9110961890    -0.3911998395    -1.0348251249
P     0.1636844846     0.6116689255    -0.0085375076
O     1.0315118902     1.4306584779     0.8215966037
O    -0.8147977062     1.3766835485    -0.9956408907
H    -4.3921684536    -2.2039296500    -1.2413320392
H     4.5234751236    -2.3257640697     0.9262647074
H    -4.2640822112    -4.3987539701    -2.2739394304
H    -3.0572973309    -5.8183046555    -0.6268195432
H    -0.8406156012    -6.4290529252    -0.8039872572
H    -0.4077293364    -4.2674300166    -2.8584514532
H     0.0824661392    -4.1388116191     2.3808016568
H     0.6341491211    -6.5201893019     2.3583861832
H     2.1496287812    -4.8873713121     3.5324165917
H     3.9226643396    -5.2058377798     1.0767191542
H    -2.8452782174    -0.0398721563     2.1830677453
H    -5.5094764351     3.1295198227     1.0962205241
H    -4.3677558748     0.1996086904    -1.8075772356
H     2.8654209046     0.2093564787    -2.2647909131
H     5.2801279780     3.4146841867    -0.7831155860
H     4.5508490763    -0.0202990196     1.6607583820
H    -0.4427423434     2.2172241982    -1.2626989681
C    -5.8468952187     2.4011147311    -1.5124190235
C    -4.0929755263     2.1667543634     3.1557216125
C     3.7429832946     2.6226305614    -2.9077558939
C     5.9293031607     2.3057824233     1.5798034989
F    -6.7326479071     3.2707833128    -1.0159435088
F    -6.5433024413     1.5226707779    -2.2537038626
F    -5.0777354433     3.0887475386    -2.3764842107
F    -5.3130556334     2.4437987379     3.6484748750
F    -3.4089201337     3.3223734844     3.1836604933
F    -3.5055703277     1.3490252717     4.0358618692
F     3.9546298019     1.8722877960    -4.0025731026
F     4.4648902705     3.7360036739    -3.0617112308
F     2.4470644711     2.9957516956    -2.9633579124
F     5.7645783858     3.6255335845     1.7329065420
F     5.7588238687     1.7487515664     2.7843177640
F     7.2301925085     2.1259799492     1.2670176829
H    -2.8239379463    -4.3816036538    -3.2991718511
H    -3.1654323250    -6.6142058207    -2.1938675182
H    -0.8765420580    -6.5087555821    -2.5565767908
H     0.5427708812    -4.6076143979    -1.4201171328
H    -0.3563446331    -4.8065998240     0.8214536150
H     1.6102207377    -6.3253496131     0.8983296085
H     3.0110852505    -6.3337562470     3.0013573730
H     4.2145811895    -4.1644096830     2.4637220628
