78
-165.72116711
C    -2.6376149803    -3.4510654059    -1.1737455939
C    -1.2873852838    -3.5530541994    -0.8336959893
C    -0.6812851270    -2.5457766604    -0.0839652177
C    -1.4320878023    -1.4242196641     0.2718444451
C    -2.7740480936    -1.3038565095    -0.0814048287
C    -3.3687543082    -2.3409609311    -0.7961940746
C     0.7592460112    -2.5596563935     0.2632532607
C     1.3521667711    -3.5357964027     1.0703422302
C     2.7256194945    -3.4672587808     1.3153042107
C     3.4590684988    -2.3931798170     0.8338613680
C     2.8709876484    -1.3700148712     0.0978903357
C     1.5208377112    -1.4983722463    -0.2191181232
C    -3.2121769699    -4.5708461497    -1.9819144401
C    -2.3502929824    -4.8479971715    -3.2256591845
C    -0.8458454889    -4.7188326211    -2.9387418151
C    -0.5471875911    -4.7082397137    -1.4338418652
C     0.4999853347    -4.5605200256     1.7657405658
C     1.2959918791    -5.7909683512     2.1844183654
C     2.5150694662    -5.3518850345     2.9835277048
C     3.4437189373    -4.5409879512     2.0874947262
C    -3.5211981422    -0.0806933098     0.2398155225
C    -3.4557102981     0.4901645418     1.5089465171
C    -4.1552412476     1.6539696311     1.7807423912
C    -4.9253408050     2.2769503157     0.8070235461
C    -4.9895469939     1.6993096688    -0.4511793962
C    -4.2955705157     0.5334382887    -0.7392457149
C     3.5876516229    -0.1363690572    -0.2423897925
C     4.4060941150     0.4679810662     0.7098180046
C     5.0029627277     1.6879199638     0.4427407702
C     4.7877448248     2.3461775258    -0.7609857602
C     3.9837057551     1.7325209659    -1.7071922741
C     3.4026063789     0.4961572532    -1.4670285234
O    -0.8011276364    -0.3732359381     0.9309120476
O     0.8694665481    -0.5069817564    -0.9417261352
P     0.1440942183     0.5542930602     0.0404393246
O     1.0284807194     1.4112476212     0.8127979796
O    -0.8443302405     1.2723936699    -0.9718948329
H    -4.4119303434    -2.2644615949    -1.0640869198
H     4.5150788457    -2.3371056046     1.0527768994
H    -3.2348188715    -5.4701916786    -1.3597178364
H    -2.5819315569    -5.8500001057    -3.5889855234
H    -0.3007329983    -5.5370734556    -3.4100043366
H     0.5258720151    -4.6177720267    -1.2660103917
H     0.0898680991    -4.0816738313     2.6619276893
H     0.6641222060    -6.4496987773     2.7820440567
H     2.1926828163    -4.7414688430     3.8290324064
H     3.9175858824    -5.2118329754     1.3627898506
H    -2.8662390308     0.0216682153     2.2812683933
H    -5.4653497673     3.1843650143     1.0294977307
H    -4.3452609530     0.1116713984    -1.7316171928
H     4.5466890975     0.0006142743     1.6720383847
H     5.2300123065     3.3122805545    -0.9487851437
H     2.8022320179     0.0330867761    -2.2342667710
H    -0.4731450284     2.0975573584    -1.2843958708
C    -5.7887729482     2.3495838002    -1.5480682324
C    -4.0873943905     2.2893064942     3.1440363212
C     5.9179826465     2.3215654379     1.4561539562
C     3.6621740759     2.4143914522    -3.0073539608
F    -6.4829641227     1.4513051400    -2.2671827892
F    -4.9994756649     2.9972437809    -2.4248349313
F    -6.6727461513     3.2457464563    -1.0976886105
F    -5.3096911394     2.5870925946     3.6192688179
F    -3.4036049092     3.4452011003     3.1251744822
F    -3.5038371644     1.5103101803     4.0609918782
F     5.7576793365     3.6478677238     1.5419914171
F     7.2145428066     2.1222674561     1.1372149458
F     5.7614875367     1.8286836234     2.6901756796
F     4.3827053558     3.5170215752    -3.2295720937
F     3.8517574161     1.6104803708    -4.0675760201
F     2.3658796950     2.7875334580    -3.0568836019
H    -4.2367427166    -4.3486018449    -2.2797047076
H    -2.6281305497    -4.1446590958    -4.0110033831
H    -0.4680710150    -3.7856999260    -3.3598855423
H    -0.8882107025    -5.6515655750    -0.9981679907
H    -0.3474726943    -4.8450860230     1.1457352104
H     1.6178562054    -6.3428375543     1.2987537348
H     3.0494535633    -6.2176518341     3.3775677808
H     4.2429810828    -4.0918315201     2.6795955535
