58
-85.21612098
C     3.2195951453     0.5198355426    -0.5096953446
C     1.9053873774     0.9515506131    -0.6624079487
C     0.8712149623     0.1993810623    -0.0892638295
C     1.1645763295    -1.0033453159     0.5436585392
C     2.4728196513    -1.4444421842     0.7098622028
C     3.4821030921    -0.6491513405     0.1947150640
C    -0.5449365735     0.6212753038    -0.1825038984
C    -1.0096414298     1.8159816944     0.3627439531
C    -2.3453678030     2.1782214456     0.1943595549
C    -3.2045599270     1.3573905252    -0.5115895763
C    -2.7834394420     0.1307683296    -1.0120927594
C    -1.4547692310    -0.2259389655    -0.8190310278
C     4.3832285550     1.2501888811    -1.1278185934
C     4.0106177118     2.6273052353    -1.6631541184
C     2.7073509847     2.5237271289    -2.4435370068
C     1.5815039783     2.1744866192    -1.4768803376
C    -0.1994683486     2.7007162054     1.2596580647
C    -0.9924020113     2.8925401854     2.5587654462
C    -2.3731086949     3.5182063218     2.3025344303
C    -2.7731925888     3.4699371073     0.8184778075
O     0.1120103403    -1.7868553263     1.0159487382
O    -0.9924905078    -1.4662412252    -1.2564646105
P    -0.7729636244    -2.5346592316    -0.0704084172
O    -1.9664314836    -3.1511876736     0.4938061226
O     0.2175660826    -3.5521792664    -0.7982836064
H     4.5082720285    -0.9681320263     0.3122441388
H    -4.2339642741     1.6537917556    -0.6536129481
H     5.1875839315     1.3343329120    -0.3929061204
H     3.8793015021     3.3259536806    -0.8340501778
H     2.4818104960     3.4667162343    -2.9448975870
H     0.6466641880     2.0105253617    -2.0172979287
H     0.7708412313     2.2542872208     1.4782161287
H    -1.1127049158     1.9118152833     3.0221566551
H    -3.1231932145     2.9839461743     2.8866849382
H    -2.2793804151     4.2919553853     0.2913912437
H    -0.2669513905    -4.3381892970    -1.0448240730
H     4.7641745329     0.6369584526    -1.9511887746
H     4.8142291868     3.0059783445    -2.2974843773
H     2.7988053747     1.7476588698    -3.2058763254
H     1.4244586778     3.0251560317    -0.8093763381
H    -0.0400146507     3.6779369703     0.7949146239
H    -0.4186933056     3.5145728092     3.2473887390
H    -2.3842318515     4.5589682525     2.6310459990
H    -3.8496577939     3.6115801448     0.7179674995
C     2.7654492306    -2.7225315563     1.4386741248
C     2.5888444798    -2.5427946308     2.9471286445
H     3.7877754128    -3.0379310447     1.2217828572
H     2.0818958178    -3.4992526488     1.0896985343
H     1.5633727412    -2.2606951229     3.1711276602
H     2.8163787498    -3.4703392131     3.4673061842
H     3.2530873675    -1.7638768906     3.3164518717
C    -3.7544050624    -0.7834332822    -1.7018263939
C    -4.6351869162    -1.5133254423    -0.6861730849
H    -3.2062027772    -1.5155758004    -2.2955716628
H    -4.3835050501    -0.1929317506    -2.3732791423
H    -5.3555330158    -2.1451609918    -1.2007309857
H    -4.0207426595    -2.1368195666    -0.0426466725
H    -5.1757329590    -0.7999446163    -0.0679730517
