58
-85.21593287
C     3.1549666206     0.4908502620    -0.6171051601
C     1.8340981450     0.9186905146    -0.7121040301
C     0.8326926702     0.1852346464    -0.0622629038
C     1.1593542878    -0.9996070331     0.5895576224
C     2.4754750347    -1.4355208052     0.6986940362
C     3.4553010045    -0.6566960880     0.1070822234
C    -0.5873896800     0.6025527101    -0.0875298610
C    -1.0321224734     1.8096691242     0.4490137352
C    -2.3827826035     2.1442161709     0.3685169422
C    -3.2831067462     1.2777510062    -0.2257052167
C    -2.8775000817     0.0416708414    -0.7110829936
C    -1.5261014302    -0.2728496054    -0.6334571712
C     4.2831078951     1.2018431223    -1.3179894450
C     3.8806436947     2.5625524918    -1.8733812266
C     2.5378026431     2.4363296847    -2.5799036234
C     1.4653539157     2.1164959752    -1.5447498959
C    -0.1751509071     2.7340886274     1.2582436693
C    -0.8799070819     2.9592018902     2.6019945915
C    -2.2798247254     3.5672177878     2.4211409164
C    -2.7861815982     3.4529118442     0.9733849915
O     0.1359209646    -1.7696070606     1.1419800338
O    -1.0784371066    -1.5168742281    -1.0764484831
P    -0.8106262262    -2.5492367410     0.1302530182
O    -1.9819792802    -3.1317494742     0.7714037742
O     0.1343964903    -3.6016021869    -0.6098492524
H     4.4865292793    -0.9728154970     0.1795003443
H    -4.3286002759     1.5456770117    -0.2784410802
H     5.1254320243     1.3075993727    -0.6298965289
H     3.7927705165     3.2855484376    -1.0595454993
H     2.2849167855     3.3641358979    -3.0963315278
H     0.5034150493     1.9359195643    -2.0294749842
H     0.8136635806     2.3061071732     1.4243767707
H    -0.9601364137     1.9917062995     3.1006009461
H    -2.9811326957     3.0557491664     3.0812660107
H    -2.3463654134     4.2601538759     0.3798656938
H    -0.3643975669    -4.3965598179    -0.7906109629
H     4.6203717710     0.5642293144    -2.1418979778
H     4.6488391846     2.9220174768    -2.5605728013
H     2.5896309687     1.6379501355    -3.3226972993
H     1.3423207779     2.9871095428    -0.8961121049
H    -0.0615001834     3.6969316902     0.7519104893
H    -0.2669546018     3.6054508378     3.2319984005
H    -2.2743541293     4.6212808985     2.7042905895
H    -3.8693569894     3.5747954082     0.9468088599
C     2.8083157531    -2.6910121040     1.4492784021
C     2.7110720528    -2.4654582615     2.9587838413
H     3.8183782279    -3.0126893492     1.1885444674
H     2.1087612663    -3.4781292651     1.1605496401
H     2.9668905310    -3.3767824322     3.4942909118
H     3.3927301756    -1.6757780797     3.2688047685
H     1.6983926814    -2.1764156034     3.2276829774
C    -3.8508232614    -0.9338534076    -1.3041833675
C    -3.7288974088    -0.9751533713    -2.8280767550
H    -4.8661368706    -0.6477499991    -1.0244075849
H    -3.6467091047    -1.9259233773    -0.8966169994
H    -3.9293710750     0.0074054830    -3.2513700593
H    -2.7249212420    -1.2773677331    -3.1150280609
H    -4.4394520803    -1.6852389105    -3.2446679169
