58
-85.21726714
C     3.1605873983     0.5769539078    -0.2498674389
C     1.8390899543     0.9397338336    -0.4977869267
C     0.8095044326     0.1770911715     0.0670136356
C     1.1130458197    -0.9997459979     0.7436361921
C     2.4267824997    -1.3792975261     0.9924870520
C     3.4295790888    -0.5490605468     0.5162414025
C    -0.6122102167     0.5717298973    -0.0694877072
C    -1.1031406063     1.7635615235     0.4765161675
C    -2.4228307051     2.1270715302     0.2199008816
C    -3.2291910228     1.2902977718    -0.5399725338
C    -2.7947587333     0.0568295452    -1.0005638459
C    -1.4742571519    -0.2893029490    -0.7412255363
C     4.3175686684     1.4032283912    -0.7476581572
C     3.9420056381     2.3149940112    -1.9096206683
C     2.6586164627     3.0622509904    -1.5735776216
C     1.5149237853     2.0630032930    -1.4477198106
C    -0.2501092204     2.5717941052     1.4191157817
C    -0.7201511783     4.0173661117     1.5277517857
C    -2.2058747513     4.0366371670     1.8605444741
C    -2.9937098256     3.4346039868     0.7031954585
O     0.0606387830    -1.8026053485     1.1808292668
O    -0.9763035783    -1.5301659715    -1.1374904486
P    -0.7968819678    -2.5677428540     0.0793042154
O    -2.0054792670    -3.1668987623     0.6298249932
O     0.1993274483    -3.6090476258    -0.6043842192
H     4.4586811815    -0.8087885359     0.7206422047
H    -4.2460674688     1.5917301385    -0.7484054591
H     4.6755645832     2.0163790762     0.0868954485
H     4.7561585054     3.0153221830    -2.1062772537
H     2.7855713768     3.6022292390    -0.6323622049
H     1.3283051659     1.6120391704    -2.4290875425
H    -0.3231967622     2.0999681340     2.4056231553
H    -0.1479247158     4.5329623471     2.3012996919
H    -2.3789741613     3.4531114221     2.7669553628
H    -2.9861528437     4.1361976952    -0.1384707699
H    -0.2564254507    -4.4424165477    -0.7120160953
H     5.1385832871     0.7433479434    -1.0361939474
H     3.7856835674     1.7186092602    -2.8108038198
H     2.4255111149     3.7915968174    -2.3516020373
H     0.5950647369     2.5685295819    -1.1573495841
H     0.7994768326     2.5308537857     1.1306913820
H    -0.5506587074     4.5355765851     0.5809383845
H    -2.5463700473     5.0571729924     2.0464867200
H    -4.0370053782     3.2908189247     0.9918869089
C     2.7615688193    -2.6480790534     1.7232559970
C     3.3099037119    -3.7045144909     0.7629197915
H     1.8657695983    -3.0311335396     2.2130177010
H     3.5092236890    -2.4330951036     2.4910160240
H     4.2212887932    -3.3518256027     0.2853516468
H     3.5323272057    -4.6234972851     1.3004687001
H     2.5774280047    -3.9200359419    -0.0105101910
C    -3.7308799856    -0.8701943673    -1.7194020466
C    -4.6435863105    -1.5968483226    -0.7298891730
H    -3.1535058112    -1.6036285535    -2.2832391812
H    -4.3383979512    -0.2919596730    -2.4205392234
H    -5.2171114637    -0.8811585727    -0.1449611992
H    -5.3348018382    -2.2450641104    -1.2636403498
H    -4.0484553444    -2.2027345225    -0.0522125908
