58
-85.21721469
C     3.1809562765     0.5408170188    -0.4523282881
C     1.8562705391     0.9229293408    -0.6482063706
C     0.8365050977     0.1518366933    -0.0795097462
C     1.1504176737    -1.0519288592     0.5415619971
C     2.4664468861    -1.4606275582     0.7243264781
C     3.4634371544    -0.6203394579     0.2559301324
C    -0.5866741288     0.5589808947    -0.1385101535
C    -1.0467432292     1.7108706877     0.5109244823
C    -2.3826059943     2.0736162438     0.3655156148
C    -3.2292176184     1.2797436964    -0.3981059758
C    -2.8170928358     0.0853206979    -0.9680623570
C    -1.4831731449    -0.2692093282    -0.8053179161
C     4.3293296854     1.3809319097    -0.9468814346
C     3.9331911822     2.3411827010    -2.0624923899
C     2.6543522537     3.0725422289    -1.6767123895
C     1.5180295986     2.0629177989    -1.5707488735
C    -0.1136657404     2.4933527815     1.3980473281
C    -0.8767224134     3.3635732518     2.3903879778
C    -1.8950142740     4.2038483498     1.6314854473
C    -2.9614753665     3.2859954055     1.0464360054
O     0.1069056536    -1.8699979314     0.9734676753
O    -1.0051850837    -1.4840507838    -1.2948119647
P    -0.7542406481    -2.5918857191    -0.1508300674
O    -1.9310342644    -3.2657393106     0.3818609004
O     0.2687175256    -3.5485297462    -0.9156706861
H     4.4957750693    -0.9020162451     0.4088425253
H    -4.2601083617     1.5819872190    -0.5181563973
H     4.7096524017     1.9584114635    -0.0969190218
H     4.7437132773     3.0502763200    -2.2422042825
H     2.7967651682     3.5754745776    -0.7174227890
H     1.3379752740     1.6304621495    -2.5618550257
H     0.5427904896     1.7970135467     1.9251846989
H    -1.3942326668     2.7336527946     3.1164380865
H    -2.3613001047     4.9374954200     2.2916302843
H    -3.5867872211     3.8339172967     0.3372745740
H    -0.1902236883    -4.3404853744    -1.1905687185
H     5.1401358867     0.7299971982    -1.2808711416
H     3.7634515308     1.7836049770    -2.9858243353
H     2.4073655805     3.8302382827    -2.4228343313
H     0.5896280599     2.5475966384    -1.2733194515
H     0.5270516627     3.1400090571     0.7924017243
H    -0.1768656714     4.0017360179     2.9330724904
H    -1.3897047579     4.7464655887     0.8293888319
H    -3.6170970595     2.9395123364     1.8519799753
C     2.7792459767    -2.7477769613     1.4283298126
C     2.5604901962    -2.6127758881     2.9359561633
H     3.8153082788    -3.0280607441     1.2292295740
H     2.1270006500    -3.5341807531     1.0426075141
H     2.8033130375    -3.5463330812     3.4381105451
H     3.1915767525    -1.8243473101     3.3415384135
H     1.5216695841    -2.3674391385     3.1409784676
C    -3.7890472274    -0.7982705137    -1.6940808107
C    -4.6376823104    -1.6024828667    -0.7075477145
H    -3.2417195329    -1.4842587750    -2.3414934624
H    -4.4402460163    -0.1779751374    -2.3155202459
H    -5.3568697353    -2.2161122614    -1.2452002165
H    -4.0008258509    -2.2512498210    -0.1125373093
H    -5.1782445470    -0.9360115173    -0.0390191183
