58
-85.21693195
C     3.1067585458     0.5027443067    -0.5642557447
C     1.7768312246     0.9068966993    -0.6221306073
C     0.8062867170     0.1368730120     0.0325528183
C     1.1623600903    -1.0709460917     0.6194438585
C     2.4874300515    -1.4887042671     0.6847323042
C     3.4416844331    -0.6643699682     0.1132788299
C    -0.6210748021     0.5328207938     0.0426853906
C    -1.0780757614     1.6928298714     0.6761471149
C    -2.4171506886     2.0513629474     0.5403579581
C    -3.2823509052     1.2248846932    -0.1655214060
C    -2.8761882458     0.0112218414    -0.6969735940
C    -1.5289983751    -0.3113452903    -0.5886857318
C     4.2067787683     1.2643708324    -1.2561283789
C     3.7606559303     2.6351572827    -1.7500231305
C     2.4169494290     2.4979431946    -2.4531590072
C     1.3584163102     2.1095476805    -1.4270538606
C    -0.1722683254     2.4556403012     1.6048741078
C    -0.6210189056     3.9006856950     1.7845901121
C    -2.0810866137     3.9154947033     2.2173865592
C    -2.9512094555     3.3418203693     1.1048865441
O     0.1527598091    -1.8854222833     1.1332747341
O    -1.0569596515    -1.5264371062    -1.0828648744
P    -0.7906059568    -2.6119499742     0.0783867969
O    -1.9655381214    -3.2245801944     0.6836898517
O     0.1601374275    -3.6260884162    -0.7065481294
H     4.4801163235    -0.9616656041     0.1563873571
H    -4.3195909038     1.5134706994    -0.2612207238
H     5.0577967742     1.3638601434    -0.5778454629
H     3.6577889652     3.3200583242    -0.9054604344
H     2.1351007379     3.4363702557    -2.9341457160
H     0.4074833288     1.8937568838    -1.9197886576
H    -0.2129098444     1.9512423044     2.5773056947
H     0.0042564777     4.3920627750     2.5325808013
H    -2.1938852124     3.3126937997     3.1207033397
H    -3.0063312451     4.0664848601     0.2847925760
H    -0.3384736345    -4.4089760138    -0.9344323388
H     4.5449459372     0.6681883377    -2.1100481891
H     4.5123183622     3.0463030482    -2.4263658329
H     2.4873945428     1.7292087015    -3.2251859394
H     1.1885808381     2.9635890943    -0.7660023815
H     0.8639028346     2.4044990362     1.2741599241
H    -0.5136896651     4.4442041179     0.8429787921
H    -2.4040203732     4.9324168234     2.4491071575
H    -3.9701020285     3.1876066385     1.4660794841
C     2.8537678507    -2.7739030954     1.3659084738
C     2.7643379567    -2.6300702413     2.8858364395
H     3.8679822711    -3.0600154487     1.0810209772
H     2.1680089010    -3.5591991049     1.0410722728
H     1.7482980717    -2.3763149384     3.1767918783
H     3.0427451317    -3.5628348299     3.3707202779
H     3.4325521015    -1.8440513415     3.2322358365
C    -3.8319451781    -0.9238884546    -1.3764256563
C    -3.6478130371    -0.8930307617    -2.8942728702
H    -4.8557620872    -0.6427631344    -1.1239828699
H    -3.6503260932    -1.9362245753    -1.0095336943
H    -3.8246334128     0.1103077097    -3.2773618778
H    -2.6347409326    -1.1893633421    -3.1541109715
H    -4.3449778406    -1.5763964513    -3.3734540130
