102
-166.33937714
C     4.2573590981    -3.6469927869     1.4332613778
C     3.0265930806    -4.2537229728     1.0655331433
C     2.1086100926    -3.5173558757     0.2652787858
C     2.4103987381    -2.2166657693    -0.0740885067
C     3.5987952120    -1.5797501497     0.3504589560
C     4.5100571269    -2.3094251645     1.0712696092
C     0.8009161066    -4.0645708401    -0.1557897525
C     0.6661753770    -5.2542566515    -0.9246742265
C    -0.6363660208    -5.6831425776    -1.2975920209
C    -1.7545041822    -4.8889652118    -0.9731717965
C    -1.6182734332    -3.7151042182    -0.2763870731
C    -0.3275566776    -3.3424539939     0.1613835171
C     5.1817134109    -4.3845513429     2.2034881551
C     4.8908653546    -5.6510089732     2.6252120152
C     3.6517185422    -6.2280139394     2.3105175102
C     2.7404127760    -5.5467279269     1.5519904401
C     1.7772193329    -5.9952903660    -1.3787702982
C     1.6061185798    -7.1376663234    -2.1107286361
C     0.3185231203    -7.5925156477    -2.4305398299
C    -0.7766343911    -6.8747096654    -2.0406261228
C     3.7348522631    -0.1349374212     0.1121160111
C     3.5125766426     0.4243111198    -1.1428925745
C     3.4522148434     1.7954982622    -1.2953383622
C     3.6058440187     2.6368484543    -0.1978983142
C     3.9000697390     2.0786117561     1.0425947598
C     3.9685089642     0.7083293516     1.1953122496
C    -2.7053318495    -2.7450716308    -0.0801953661
C    -2.9402534295    -2.1622642893     1.1612252824
C    -3.7992819642    -1.0877401339     1.2738938012
C    -4.4375320318    -0.5737037034     0.1504661323
C    -4.2685880116    -1.2097077193    -1.0735509160
C    -3.4124430258    -2.2868164525    -1.1877387800
O     1.5067807457    -1.4765014682    -0.8277115099
O    -0.1847126792    -2.1549472481     0.8719869275
P     0.2097552597    -0.9251222723    -0.0868016929
O    -0.8003302191    -0.4195767436    -1.0039704500
O     0.7142642249     0.1259928429     0.9937101803
H     5.4321394954    -1.8461879728     1.3913860451
H    -2.7328271712    -5.2014657863    -1.3082579901
H     6.1225519515    -3.9202982112     2.4618547252
H     5.6034018247    -6.2084136030     3.2149504345
H     3.4187929543    -7.2172970261     2.6754255991
H     1.7851399399    -5.9936065307     1.3235268087
H     2.7714210240    -5.6460457149    -1.1458206826
H     2.4661071400    -7.6954974244    -2.4504207443
H     0.2015680645    -8.5029569863    -2.9994178222
H    -1.7719418002    -7.2021636307    -2.3041818900
H     3.3694477104    -0.2183224149    -1.9981621317
H     3.2467295296     2.2230344216    -2.2660913506
H     4.0487743025     2.7278476461     1.8937256083
H     4.1534768937     0.2815058107     2.1703083462
H    -2.4308017107    -2.5401458706     2.0353557987
H    -3.9542915631    -0.6151913615     2.2336835295
H    -4.7794530490    -0.8274804177    -1.9451968391
H    -3.2395785728    -2.7404627509    -2.1523393649
H     0.1204669375     0.8767044875     1.0004356945
C     3.3917772332     4.0921251746    -0.3368234494
C     4.3100917545     4.8842778241    -1.0392293075
C     2.2391522393     4.6635150974     0.2255067132
C     4.0674482689     6.2861362296    -1.1827833254
C     5.4955592694     4.3447892156    -1.6033927019
C     2.0069039274     6.0668824567     0.0810820938
C     1.2713248263     3.8908798177     0.9205519300
C     5.0058929278     7.0730607787    -1.8986603491
C     2.9244644603     6.8440188660    -0.6190261698
C     6.3720443757     5.1344774034    -2.2822522114
H     5.6917543566     3.2897948217    -1.4799995620
C     0.8377497907     6.6303447641     0.6544914601
C     0.1615219282     4.4696656087     1.4567527833
H     1.4335321040     2.8271578474     1.0178878259
C     6.1236183912     6.5144595797    -2.4364954568
H     4.8099926048     8.1306975368    -2.0047564545
H     2.7444256820     7.9045989878    -0.7286969481
H     7.2700911174     4.7110492003    -2.7079479038
H     0.6762411872     7.6931757654     0.5422251495
C    -0.0573027335     5.8569657903     1.3263346531
H    -0.5676821218     3.8723253842     1.9852172223
H     6.8328684054     7.1204830581    -2.9810798391
H    -0.9441343994     6.2925549484     1.7628993766
C    -5.2209550690     0.6773300864     0.2618513796
C    -4.5510871633     1.9008747267     0.1163869510
C    -6.5934897145     0.6412913758     0.5319134531
C    -5.2773453034     3.1223748614     0.2751063682
C    -3.1663549359     1.9697412433    -0.1925270633
C    -7.3166747569     1.8667166720     0.6737315338
C    -7.2991890340    -0.5822460785     0.6709909975
C    -4.5814039890     4.3519748093     0.1432864673
C    -6.6408467326     3.0767073030     0.5511063396
C    -2.5398874763     3.1720014471    -0.3210883051
H    -2.6187228767     1.0522880226    -0.3476226040
C    -8.7084534897     1.8086461678     0.9421717160
C    -8.6356305227    -0.5943567981     0.9274045965
H    -6.7488427669    -1.5061057187     0.5651237555
C    -3.2514383172     4.3771072658    -0.1432484320
H    -5.1381259949     5.2699026439     0.2710516880
H    -7.1877125923     4.0021206797     0.6706173922
H    -1.4891018813     3.2139926140    -0.5697906455
H    -9.2483682695     2.7393710628     1.0461340530
C    -9.3497491821     0.6149523673     1.0640491712
H    -9.1640658851    -1.5312109640     1.0287568781
H    -2.7266359745     5.3160132608    -0.2460946862
H   -10.4103887828     0.5802493272     1.2667397021
