102
-166.34015797
C     4.3071364800    -3.7597737258     1.3618902326
C     3.0509845896    -4.3164843653     1.0005827257
C     2.1506272549    -3.5375659660     0.2206733650
C     2.4974790842    -2.2464825214    -0.1086401992
C     3.7205960268    -1.6646317270     0.2969243595
C     4.6103775279    -2.4308940921     1.0037277325
C     0.8189859677    -4.0274831214    -0.1941950174
C     0.6348432751    -5.1969373351    -0.9835732092
C    -0.6848397329    -5.5699208063    -1.3557827010
C    -1.7698345178    -4.7410718839    -1.0073932022
C    -1.5848606171    -3.5868427237    -0.2893440582
C    -0.2784982964    -3.2675604433     0.1434203450
C     5.2088226253    -4.5381077355     2.1183482860
C     4.8744179875    -5.7968997127     2.5310615743
C     3.6130139509    -6.3253302856     2.2200826029
C     2.7215847846    -5.6033094853     1.4756926304
C     1.7144408943    -5.9713111004    -1.4576157595
C     1.4960019134    -7.0929787145    -2.2087732397
C     0.1903504576    -7.4930892832    -2.5286683782
C    -0.8746064651    -6.7416396653    -2.1190642361
C     3.8925275744    -0.2265504439     0.0397473984
C     3.7211093132     0.2994731024    -1.2373448771
C     3.6171141430     1.6633527065    -1.4197000565
C     3.6763362001     2.5282922684    -0.3304249073
C     3.9532061346     2.0065545793     0.9296373926
C     4.0628321866     0.6421101074     1.1133508556
C    -2.6426925088    -2.5936493409    -0.0548196842
C    -3.3553801493    -2.0910472764    -1.1391487688
C    -4.2078979867    -1.0174200134    -0.9781327578
C    -4.3655278657    -0.4241995050     0.2698355470
C    -3.7083867629    -0.9745771675     1.3660980430
C    -2.8563802017    -2.0483798209     1.2073519815
O     1.6075628917    -1.4569175824    -0.8293707906
O    -0.0898469082    -2.1028713076     0.8789000958
P     0.3630423284    -0.8575203028    -0.0310215996
O    -0.6288351309    -0.2375751315    -0.8966909528
O     0.9570048703     0.0956174504     1.0941490775
H     5.5535918879    -2.0057810828     1.3149207328
H    -2.7620470342    -5.0113937209    -1.3383771837
H     6.1683288139    -4.1116906279     2.3732502497
H     5.5702201629    -6.3854490787     3.1104374288
H     3.3468978898    -7.3092665428     2.5766710953
H     1.7488407495    -6.0123863850     1.2499048735
H     2.7225382264    -5.6643394953    -1.2248997632
H     2.3323223194    -7.6766628320    -2.5637814505
H     0.0358501641    -8.3881211930    -3.1128346727
H    -1.8831543183    -7.0265417659    -2.3817370033
H     3.6355409724    -0.3666142067    -2.0827152965
H     3.4484119677     2.0667449329    -2.4076173146
H     4.0294427133     2.6751609289     1.7753696226
H     4.2166624594     0.2387242841     2.1035324258
H    -3.1947760889    -2.5121259751    -2.1205774540
H    -4.7249638368    -0.6031112833    -1.8315166058
H    -3.8526143220    -0.5368039602     2.3438632703
H    -2.3386923928    -2.4578629517     2.0621040984
H     0.4833642097     0.9268514966     1.0914123263
C     3.3417473521     3.9575359088    -0.4883217169
C     4.3090969093     4.9518473420    -0.2919346827
C     2.0156740457     4.2996383605    -0.8035939139
C     3.9381175599     6.3282158197    -0.4035435936
C     5.6639797512     4.6402232956    -0.0062055162
C     1.6543416714     5.6791209396    -0.9129565902
C     1.0002044598     3.3261785192    -1.0007999084
C     4.9297565983     7.3221625513    -0.2007497133
C     2.6214978625     6.6586570523    -0.7079795529
C     6.5863746930     5.6239464074     0.1785905572
H     5.9520653343     3.6009098180     0.0548826246
C     0.3103887264     6.0140570054    -1.2227338871
C    -0.2761311807     3.6871613433    -1.3086124008
H     1.2489519434     2.2781739009    -0.9151626182
C     6.2153661544     6.9817761538     0.0856924143
H     4.6374620517     8.3595091346    -0.2832444228
H     2.3434514838     7.7006201732    -0.7883969644
H     7.6148723445     5.3734548054     0.3944025915
H     0.0523294951     7.0609361208    -1.3005445955
C    -0.6280178230     5.0485263881    -1.4190286164
H    -1.0265827453     2.9268937085    -1.4652801890
H     6.9646833062     7.7448570449     0.2380459639
H    -1.6491389216     5.3106824188    -1.6538780700
C    -5.1696451094     0.8042618882     0.4285238648
C    -6.5647648495     0.7646539462     0.2972172765
C    -4.5123788677     2.0116258797     0.7146148771
C    -7.3227393316     1.9666102169     0.4568029711
C    -7.2646367088    -0.4414711449     0.0321319303
C    -5.2803800731     3.2053442871     0.8884371208
C    -3.0985023915     2.0987856897     0.8213493276
C    -8.7333543548     1.9099614632     0.3173359390
C    -6.6643543578     3.1558063079     0.7526832847
C    -8.6201176629    -0.4543574163    -0.0916765621
H    -6.6975039345    -1.3554140855    -0.0663355236
C    -4.6061642222     4.4161842352     1.1922880140
C    -2.4915719027     3.2796088393     1.1244987078
H    -2.5079964048     1.2124406074     0.6405306520
C    -9.3646381268     0.7357187191     0.0468104838
H    -9.2952848601     2.8259325223     0.4343406469
H    -7.2411409510     4.0614365010     0.8820230884
H    -9.1402553690    -1.3793196738    -0.2944290985
H    -5.1981444449     5.3113005734     1.3221586858
C    -3.2520217379     4.4517761764     1.3162028135
H    -1.4155857949     3.3368537986     1.2080557445
H   -10.4393104780     0.7011148165    -0.0580435576
H    -2.7433248750     5.3759037206     1.5494138777
