114
-186.682175
C    -2.1183269596    -4.5273687080     2.0224750336
C    -0.7278015924    -4.2384040921     2.0231119201
C    -0.3113668038    -2.8877025500     1.8521472729
C    -1.2608873340    -1.9295505306     1.5853391203
C    -2.6449330309    -2.2113113339     1.5116148054
C    -3.0479307178    -3.4979401434     1.7781615314
C     1.1016265682    -2.4697220490     1.9590441812
C     1.8595674277    -2.7877026643     3.1256003814
C     3.2325053141    -2.4317800928     3.1748678218
C     3.7842930123    -1.6680290530     2.1285738929
C     3.0214158896    -1.2545192957     1.0676984948
C     1.6857675706    -1.7078248385     0.9680303340
C    -2.5389974276    -5.8599421162     2.2224710860
C    -1.6291383123    -6.8679893770     2.3717004396
C    -0.2557049981    -6.5894458793     2.3102042625
C     0.1857005516    -5.3064635376     2.1400524916
C     1.2914858845    -3.4123675317     4.2565336292
C     2.0585586279    -3.7345330428     5.3419383930
C     3.4305317074    -3.4454319963     5.3581680524
C     4.0010875779    -2.7959799870     4.3004960545
C    -3.5714026738    -1.1654175125     1.0518147546
C    -3.4075545638     0.1663251311     1.4184484581
C    -4.1641104616     1.1712150738     0.8226105764
C    -5.1648608753     0.8193930200    -0.0754421032
C    -5.3928785448    -0.5139766202    -0.4046305825
C    -4.5731086684    -1.4952084215     0.1425357338
C     3.5651511388    -0.2845168940     0.0951527498
C     3.0229321825     0.9936868926     0.0525928071
C     3.5742216357     1.9684382494    -0.7740065382
C     4.6615628327     1.6339539022    -1.5738446277
C     5.2057354215     0.3535679174    -1.5542281687
C     4.6560445128    -0.5999739892    -0.7016521242
O    -0.8350075734    -0.6336145305     1.3086090144
O     1.0064062393    -1.4079880669    -0.2016723219
P    -0.2833366994    -0.4588647756    -0.1754204321
O    -0.1031771662     0.9296562439    -0.5711251109
O    -1.2733902520    -1.2726610827    -1.1202297223
H    -4.1002710767    -3.7412144946     1.7729446526
H     4.8150769039    -1.3514545031     2.1964396486
H    -3.5991411841    -6.0677790774     2.2404538248
H    -1.9596978285    -7.8852155725     2.5208580907
H     0.4544320163    -7.3984919124     2.3952335460
H     1.2434872183    -5.1003911037     2.0835294530
H     0.2343884779    -3.6271489334     4.2664337528
H     1.6061370606    -4.2114024812     6.1987011363
H     4.0236495214    -3.7200313498     6.2177887059
H     5.0495376507    -2.5353959675     4.3130265343
H    -2.6882948104     0.4357316282     2.1747113694
H    -5.7407786708     1.5937079441    -0.5606099452
H    -4.7093373045    -2.5258231689    -0.1486620629
H     2.1897290869     1.2426061972     0.6918696386
H     5.0956054072     2.3841698273    -2.2186142586
H     5.0605100850    -1.6014074357    -0.6774638779
H    -1.5716857548    -0.7045728549    -1.8291377997
C    -3.8360594431     2.5802977961     1.0821888996
C    -4.8188641212     3.5554509673     1.2434074490
C    -2.5014856274     2.9740424658     1.1229108624
C    -4.4764766607     4.8756657572     1.4387584309
H    -5.8614281398     3.2720698065     1.2314440008
C    -2.1488274202     4.2973865772     1.3131294685
H    -1.7226045893     2.2432442162     0.9650192271
C    -3.1355513879     5.2648456175     1.4688109154
H    -5.2327772150     5.6342527461     1.5678214416
H    -1.1027860117     4.5587522375     1.3289922653
C    -6.4620106803    -0.8757156923    -1.3470251336
C    -6.2686269616    -1.8596849405    -2.3168436241
C    -7.6991604549    -0.2441510863    -1.2928035128
C    -7.2742645528    -2.1934291018    -3.1958468565
H    -5.3106252182    -2.3522763500    -2.3948535616
C    -8.7191627470    -0.5762722388    -2.1664755969
H    -7.8792878160     0.5088296408    -0.5395309427
C    -8.5149544634    -1.5568612675    -3.1305188966
H    -7.1265303663    -2.9482580429    -3.9522033150
H    -9.6660793592    -0.0660678441    -2.0831624535
C     6.3521487620     0.0180236660    -2.4113272924
C     7.3941251433    -0.7713458313    -1.9388531172
C     6.4261869173     0.4862572017    -3.7235336805
C     8.4804557331    -1.0873207294    -2.7356688447
H     7.3707136166    -1.1316521335    -0.9206613117
C     7.4986145402     0.1723420724    -4.5274954443
H     5.6204997830     1.0850889470    -4.1213157924
C     8.5420843710    -0.6179605156    -4.0425181603
H     9.2708094989    -1.6964186025    -2.3250730533
H     7.5557935426     0.5257849242    -5.5450745321
C     3.0262271030     3.3341014581    -0.7761966015
C     3.8629438459     4.4437850759    -0.7673703029
C     1.6468451618     3.5443377607    -0.7748888438
C     3.3525230491     5.7310659372    -0.7351930235
H     4.9349445755     4.3064260880    -0.7587171010
C     1.1322741169     4.8212530886    -0.7632811834
H     0.9776928140     2.7007555374    -0.8011419303
C     1.9774459957     5.9306732090    -0.7289443193
H     4.0372599081     6.5648715695    -0.7126683151
H     0.0661386064     4.9845656178    -0.7864275151
O     1.3576598203     7.1493595822    -0.6854432203
O     9.5572867115    -0.8659429472    -4.9182613784
O    -9.4413687392    -1.9645551534    -4.0429575717
O    -2.9031620889     6.5949550145     1.6495437801
C   -10.7069022048    -1.3517340085    -4.0349558884
H   -11.2282738706    -1.5161443335    -3.0861166644
H   -10.6348749173    -0.2763742212    -4.2283629179
H   -11.2686341015    -1.8241868495    -4.8393165118
C    -1.5696713636     7.0489465374     1.6677002789
H    -1.0585674057     6.8558403357     0.7195449855
H    -1.6297807069     8.1242582845     1.8294923655
H    -1.0011040018     6.5930713318     2.4846277745
C     2.1555691997     8.3060717473    -0.6678506505
H     2.7790067535     8.3792827722    -1.5649785428
H     1.4608374555     9.1444443788    -0.6441663908
H     2.7939834620     8.3414010134     0.2213652193
C    10.6331224355    -1.6633647730    -4.4906569521
H    11.3088616281    -1.7287443952    -5.3420936589
H    11.1609393212    -1.2088137029    -3.6455866215
H    10.3034086456    -2.6702361709    -4.2136807541
