102
-166.33864758
C     4.1582583067    -3.7604397849     1.5050395870
C     2.9063575635    -4.2573432453     1.0539710680
C     2.0902392468    -3.4259016002     0.2370557001
C     2.5062997798    -2.1441575673    -0.0423327497
C     3.7301684945    -1.6261432320     0.4389328830
C     4.5407126434    -2.4427786644     1.1848901855
C     0.7740791880    -3.8582030160    -0.2770115213
C     0.6150200651    -4.9987424723    -1.1120915938
C    -0.6857835702    -5.3285809335    -1.5778325660
C    -1.7729154516    -4.4926873874    -1.2567139240
C    -1.6090033410    -3.3657613474    -0.4904035775
C    -0.3226066864    -3.0777868034     0.0143491406
C     4.9765211532    -4.5885882184     2.3024420711
C     4.5651820864    -5.8394827365     2.6667384878
C     3.3073192274    -6.3104151033     2.2625289092
C     2.4959228040    -5.5388460922     1.4774773332
C     1.7055435088    -5.7842040660    -1.5411843293
C     1.5108316680    -6.8743049305    -2.3433892113
C     0.2199740630    -7.2308460017    -2.7606705853
C    -0.8524407388    -6.4686556281    -2.3927891978
C     4.0108656921    -0.2035673963     0.1970180660
C     3.9216314501     0.3336875306    -1.0839455867
C     3.9643237552     1.7001227345    -1.2688508205
C     4.0955093201     2.5568390846    -0.1795411572
C     4.2786037532     2.0143453182     1.0881849571
C     4.2379280648     0.6463089227     1.2750034795
C    -2.6992203572    -2.4104713981    -0.2457217412
C    -3.4141337509    -1.8974468205    -1.3236024386
C    -4.3801075644    -0.9315995230    -1.1250921694
C    -4.6630685841    -0.4707214511     0.1561637891
C    -3.9718771815    -1.0086316406     1.2363148720
C    -2.9940233885    -1.9633812887     1.0380976418
O     1.6870676185    -1.3073409625    -0.7937661052
O    -0.1502373618    -1.9343161864     0.7858317102
P     0.4196562866    -0.6850125045    -0.0529702719
O    -0.4952391551     0.0048510612    -0.9500408230
O     0.9955267829     0.2044076906     1.1333764446
H     5.4842868790    -2.0666814830     1.5529291702
H    -2.7522108971    -4.7370260335    -1.6420455753
H     5.9337571794    -4.2070252095     2.6273426229
H     5.1970368739    -6.4665371528     3.2781151272
H     2.9800153293    -7.2894348373     2.5795539851
H     1.5249749869    -5.9035807581     1.1793784938
H     2.7031403654    -5.5104279254    -1.2337697132
H     2.3549674330    -7.4665714221    -2.6640484227
H     0.0840000344    -8.1012614870    -3.3852366218
H    -1.8482350950    -6.7201265496    -2.7281224159
H     3.7901620833    -0.3222786851    -1.9311429941
H     3.8598053937     2.1169072485    -2.2600559384
H     4.4051637516     2.6745518777     1.9344277926
H     4.3237191526     0.2319715374     2.2689078311
H    -3.1820253365    -2.2345674098    -2.3229380305
H    -4.9175572704    -0.5192475989    -1.9668226352
H    -4.1958466593    -0.6598489616     2.2345917290
H    -2.4558072413    -2.3689641418     1.8819111755
H     0.5217924961     1.0343115410     1.1717441209
C     3.9331991370     4.0133413496    -0.3597842651
C     5.0138550609     4.8897249238    -0.2022163349
C     2.6548235220     4.5009169648    -0.6766561458
C     4.8095937045     6.2957363721    -0.3646052191
C     6.3224312704     4.4270262568     0.0942297925
C     2.4604832812     5.9077593699    -0.8417939280
C     1.5299359152     3.6468266872    -0.8215383834
C     5.9156069896     7.1691861949    -0.2019877174
C     3.5407032724     6.7706687843    -0.6808122769
C     7.3578378656     5.2983176601     0.2396890545
H     6.4813300841     3.3634406013     0.1971362992
C     1.1642504033     6.3865707148    -1.1637062892
C     0.3020714312     4.1453024803    -1.1322783640
H     1.6557641228     2.5819013868    -0.6899005711
C     7.1525290381     6.6865227120     0.0944191951
H     5.7504970623     8.2305331258    -0.3227625333
H     3.3904789082     7.8343779845    -0.8048079667
H     8.3497545043     4.9341976943     0.4647030515
H     1.0314423769     7.4516855856    -1.2913014294
C     0.1152598668     5.5318374615    -1.3089984920
H    -0.5324602821     3.4694736735    -1.2477259252
H     7.9895150190     7.3586196308     0.2157811068
H    -0.8668012701     5.9075688303    -1.5574255971
C    -5.6746246935     0.5873931450     0.3675423135
C    -6.9420653482     0.2516925052     0.8625961769
C    -5.3510843700     1.9196298060     0.0735427188
C    -7.9140727090     1.2798167081     1.0683010249
C    -7.3064577184    -1.0884583824     1.1561757568
C    -6.3298544561     2.9417007892     0.2811020174
C    -4.0708231072     2.2975238111    -0.4115741974
C    -9.1926129499     0.9221260008     1.5680895404
C    -7.5857104100     2.5987971730     0.7723689566
C    -8.5448690485    -1.3905207036     1.6332880260
H    -6.5779637209    -1.8686232802     0.9899163106
C    -5.9900575985     4.2861793333    -0.0173660063
C    -3.7866626057     3.6008055802    -0.6844073870
H    -3.3220452602     1.5329032831    -0.5607110038
C    -9.4997198703    -0.3739187986     1.8448422670
H    -9.9190123004     1.7076872660     1.7220557735
H    -8.3225476546     3.3749505729     0.9280634392
H    -8.8097033688    -2.4146855390     1.8528437360
H    -6.7385979326     5.0497895589     0.1410514818
C    -4.7549529863     4.6072299027    -0.4882067051
H    -2.8115439764     3.8782254325    -1.0552127533
H   -10.4759731770    -0.6379396829     2.2248053136
H    -4.5031680430     5.6337349530    -0.7127232747
