114
-186.68217482
C    -2.1548148830    -4.6403252297     1.7667140521
C    -0.7617083740    -4.3641889472     1.7842664838
C    -0.3333632161    -3.0086461132     1.7055505757
C    -1.2751413979    -2.0260972349     1.5093717757
C    -2.6614218108    -2.2905239656     1.4170291356
C    -3.0757651741    -3.5887786667     1.5938409013
C     1.0837441924    -2.6107499837     1.8323289170
C     1.8474690730    -3.0145355441     2.9680864466
C     3.2236126863    -2.6732407684     3.0311892457
C     3.7737242062    -1.8412312139     2.0372952350
C     3.0062455597    -1.3493460266     1.0139169844
C     1.6672363499    -1.7865373645     0.8921063892
C    -2.5869531279    -5.9797156944     1.8762491443
C    -1.6858991538    -7.0035585605     1.9547322034
C    -0.3101614708    -6.7335172029     1.9091485020
C     0.1423474917    -5.4458286182     1.8256586123
C     1.2825485313    -3.7121998967     4.0571600252
C     2.0550690718    -4.1156764979     5.1110607614
C     3.4296161019    -3.8395836108     5.1360950203
C     3.9976634894    -3.1219058745     4.1220560624
C    -3.5764409999    -1.2067577470     1.0274051989
C    -3.4052171667     0.0936583571     1.4900686548
C    -4.1478869747     1.1454474309     0.9612444309
C    -5.1421334181     0.8679116624     0.0303772294
C    -5.3762299625    -0.4361716706    -0.3971177588
C    -4.5709012204    -1.4615841944     0.0867429217
C     3.5473153381    -0.3155295048     0.1077535527
C     3.0167150580     0.9669379119     0.1671534429
C     3.5645769031     1.9947430089    -0.5947672263
C     4.6361895385     1.7103286388    -1.4342185564
C     5.1679653796     0.4273078680    -1.5168157468
C     4.6227036751    -0.5813192955    -0.7270580998
O    -0.8397984015    -0.7172911451     1.3230688414
O     0.9826612005    -1.4025721337    -0.2501527954
P    -0.2952757017    -0.4435245579    -0.1490051004
O    -0.1045446284     0.9677628483    -0.4471938917
O    -1.2970806609    -1.1789253468    -1.1448496549
H    -4.1302167956    -3.8218378541     1.5713309556
H     4.8071885975    -1.5371595547     2.1194852597
H    -3.6489078734    -6.1789347335     1.8824450240
H    -2.0252831490    -8.0256136279     2.0354101111
H     0.3929401356    -7.5526058572     1.9374387860
H     1.2018325961    -5.2458166633     1.7809160578
H     0.2237200215    -3.9186129256     4.0604690026
H     1.6051368213    -4.6476398120     5.9361138774
H     4.0269700915    -4.1789053359     5.9692422073
H     5.0484102327    -2.8715376280     4.1440463455
H    -2.6909016683     0.3012083424     2.2702232723
H    -5.7076558954     1.6796195218    -0.4030973332
H    -4.7121758112    -2.4676701272    -0.2786707760
H     2.1956895487     1.1756073814     0.8359698709
H     5.0672180774     2.5021991770    -2.0294297428
H     5.0184455958    -1.5849461019    -0.7824114606
H    -1.6138377238    -0.5505458574    -1.7922258307
C    -3.8105980950     2.5289689066     1.3253987840
C    -2.4730689195     2.9055329211     1.4094205572
C    -4.7864216918     3.4994470838     1.5463778630
C    -2.1105757922     4.2077302033     1.7003790284
H    -1.6990745091     2.1806372526     1.2065808188
C    -4.4342532389     4.7982688138     1.8419637435
H    -5.8312834438     3.2282225399     1.5018035290
C    -3.0902790068     5.1708209763     1.9160138110
H    -1.0624579299     4.4568959366     1.7470161491
H    -5.1851111254     5.5528297362     2.0177175666
C    -6.4353578213    -0.7188319945    -1.3772107752
C    -7.6750774079    -0.0851704631    -1.2884892872
C    -6.2337373752    -1.6210362622    -2.4151370752
C    -8.6724802095    -0.3507094670    -2.1991805351
H    -7.8617776746     0.6080699950    -0.4818959007
C    -7.2265768301    -1.8898987843    -3.3408061335
H    -5.2759181205    -2.1101040249    -2.5190610121
C    -8.4601196124    -1.2570006790    -3.2396613059
H    -9.6350802651     0.1309655237    -2.1295195373
H    -7.0242662673    -2.5911176402    -4.1354667654
C     6.2957893237     0.1423544968    -2.4158230597
C     7.3409694726    -0.6906203678    -2.0159804274
C     6.3506030127     0.6952448061    -3.6900247464
C     8.3978846943    -0.9543666271    -2.8577806126
H     7.3324663112    -1.1186506714    -1.0245383512
C     7.4040398534     0.4310057299    -4.5473564117
H     5.5442077123     1.3282692677    -4.0303333559
C     8.4417477406    -0.3979085082    -4.1371485573
H     9.2117198494    -1.5919339687    -2.5496721034
H     7.4013866769     0.8743770483    -5.5309808457
C     3.0289611904     3.3613440893    -0.4892129240
C     1.6515595991     3.5819501644    -0.4589893039
C     3.8754788102     4.4603297578    -0.4052814345
C     1.1482106431     4.8584643488    -0.3469896078
H     0.9751662961     2.7479037505    -0.5418051604
C     3.3765847630     5.7456521739    -0.2715461085
H     4.9462561877     4.3137945873    -0.4171985620
C     2.0034075247     5.9552435816    -0.2372591888
H     0.0833702359     5.0315811711    -0.3476618191
H     4.0686868813     6.5699117868    -0.1926699213
O     1.3945829148     7.1721177631    -0.0964638537
O     9.5289027169    -0.7263347944    -4.8917291184
O    -9.5102998170    -1.4460381368    -4.0872435297
O    -2.8479156737     6.4814644048     2.1973933157
C    -9.3598046924    -2.3510743520    -5.1526292102
H    -8.5623498882    -2.0403710596    -5.8357829160
H    -9.1560532229    -3.3654684439    -4.7939401206
H   -10.3104524495    -2.3424699488    -5.6836033413
C    -1.5106819263     6.9193700355     2.2656250186
H    -0.9893954889     6.7929993255     1.3117583968
H    -1.5630488097     7.9800274387     2.5072017817
H    -0.9568031865     6.3977405717     3.0528019209
C     2.2023442083     8.3179221344     0.0009834400
H     2.8185839185     8.4538433227    -0.8938415002
H     1.5149356271     9.1574787533     0.0942838084
H     2.8487279569     8.2810411841     0.8843572983
C     9.6299262799    -0.1957831020    -6.1897191734
H    10.5616965118    -0.5859761853    -6.5964465721
H     8.7968157731    -0.5185066795    -6.8229670574
H     9.6726284107     0.8983741947    -6.1757354164
