114
-186.68217237
C    -2.0013443763    -4.6835086304     1.2367692788
C    -0.6515992996    -4.3114912726     1.4743727476
C    -0.3377387735    -2.9275271649     1.5942524198
C    -1.3270689539    -1.9967172436     1.3821796117
C    -2.6577241932    -2.3499967574     1.0597681972
C    -2.9755616569    -3.6870652780     1.0373988884
C     1.0286059826    -2.4609304015     1.9060082073
C     1.7162632050    -2.9378503224     3.0598262308
C     3.0731682520    -2.5717679343     3.2549900855
C     3.6882567728    -1.6937380650     2.3417460988
C     2.9889557027    -1.1426941567     1.2996652757
C     1.6508372723    -1.5428148132     1.0855127852
C    -2.3304275433    -6.0538446435     1.1558996428
C    -1.3647750846    -7.0141457996     1.2618925978
C    -0.0229369905    -6.6434735823     1.4338200840
C     0.3268791930    -5.3254202274     1.5361611805
C     1.0868324459    -3.7323356472     4.0417337096
C     1.7820910152    -4.1862840483     5.1281780349
C     3.1389842055    -3.8704744600     5.2900102337
C     3.7674767633    -3.0726482423     4.3763229304
C    -3.6203474789    -1.3118721995     0.6624625361
C    -3.6685792008    -0.0731700556     1.2921245314
C    -4.4876184506     0.9411373689     0.8054639394
C    -5.3173185542     0.6828691484    -0.2791045743
C    -5.3162811420    -0.5641901299    -0.8970779029
C    -4.4503085127    -1.5467858335    -0.4307387279
C     3.6218232359    -0.1441780874     0.4127898232
C     3.1971251527     1.1763453218     0.4462725285
C     3.8154268445     2.1376637081    -0.3496297620
C     4.8563090948     1.7466250957    -1.1863575844
C     5.2931313145     0.4267914324    -1.2299778521
C     4.6713536750    -0.5152860128    -0.4156048415
O    -0.9905792033    -0.6499232759     1.4520160141
O     1.0021211359    -1.0395739009    -0.0327270784
P    -0.2584665045    -0.0679846717     0.1658369706
O    -0.0147378293     1.3644135435     0.2640570091
O    -1.1337358903    -0.4996861037    -1.0902434581
H    -3.9928984425    -3.9906862933     0.8385337798
H     4.7208815836    -1.4148025607     2.4935761753
H    -3.3635515452    -6.3263298302     0.9950673471
H    -1.6241636025    -8.0604647315     1.1972539530
H     0.7371923285    -7.4089589647     1.4817965851
H     1.3630928097    -5.0500851840     1.6567259589
H     0.0396867844    -3.9701104868     3.9347485258
H     1.2849689452    -4.7896306614     5.8731381455
H     3.6752775058    -4.2481446761     6.1478581682
H     4.8049925247    -2.7992776476     4.5028527172
H    -3.0776646485     0.1102912925     2.1749090882
H    -5.9360513567     1.4741971079    -0.6762220736
H    -4.4152334052    -2.5041732560    -0.9284575231
H     2.3982735208     1.4618002967     1.1122048798
H     5.3116095588     2.4741024838    -1.8421073256
H     5.0108337320    -1.5409240641    -0.4177573833
H    -1.3392487432     0.2705237060    -1.6176395408
C    -4.4191731916     2.2845510951     1.3977512502
C    -3.1819744210     2.8431102856     1.7024927382
C    -5.5661002163     3.0405104521     1.6343140553
C    -3.0831166638     4.1204296701     2.2244250020
H    -2.2778589550     2.2863842453     1.5024635013
C    -5.4771123425     4.3087860491     2.1640130152
H    -6.5373321408     2.6202129219     1.4177307574
C    -4.2323999673     4.8660224521     2.4619211198
H    -2.1037220683     4.5195229624     2.4362037427
H    -6.3606431538     4.8967176128     2.3573737139
C    -6.1964046889    -0.8273242898    -2.0450808326
C    -7.5113262971    -0.3614886135    -2.0572674480
C    -5.7447208313    -1.5441525710    -3.1469588464
C    -8.3399763493    -0.6097366594    -3.1279796768
H    -7.8912745438     0.1833529748    -1.2058641379
C    -6.5665728469    -1.7929586142    -4.2320088991
H    -4.7241693438    -1.8977874177    -3.1714582757
C    -7.8768693972    -1.3284113687    -4.2317136000
H    -9.3597352915    -0.2583786005    -3.1382415623
H    -6.1724023404    -2.3462399257    -5.0701870247
C     6.3970560615     0.0328033058    -2.1172274192
C     6.3586627854    -1.1724191553    -2.8188837844
C     7.5103095948     0.8491475978    -2.2799730326
C     7.3915654280    -1.5397772284    -3.6515727512
H     5.4967348503    -1.8161516162    -2.7250449517
C     8.5573792323     0.4870155903    -3.1088388167
H     7.5740971606     1.7785114838    -1.7331099906
C     8.5065247796    -0.7142891403    -3.8062699496
H     7.3620555274    -2.4670266513    -4.2021371536
H     9.4054841941     1.1478099181    -3.1992843140
C     3.3820280134     3.5411431126    -0.2954851200
C     2.0382229312     3.8673825109    -0.1420029352
C     4.3069104069     4.5820949748    -0.3866115189
C     1.6230245561     5.1859919910    -0.0854392405
H     1.2995656291     3.0844378376    -0.0803245494
C     3.9023331195     5.8971134816    -0.3248399048
H     5.3593133551     4.3583951552    -0.4821245071
C     2.5521156116     6.2156509035    -0.1752338707
H     0.5699890431     5.3922749695     0.0263135384
H     4.6155253624     6.7043403938    -0.3864267182
O     2.2554728430     7.5480759248    -0.1263529390
O     9.4737030691    -1.1726383661    -4.6509756068
O    -8.7753269582    -1.5154964415    -5.2387537078
O    -4.2539397939     6.1315973344     2.9706826027
C    -8.3700711059    -2.2360175146    -6.3761652159
H    -9.2371373430    -2.2602339371    -7.0344415928
H    -7.5397186927    -1.7419881610    -6.8914964187
H    -8.0813393862    -3.2612447322    -6.1218509640
C    -3.0298856879     6.7480361866     3.2837242721
H    -2.3975773713     6.8600810193     2.3964032611
H    -3.2856840160     7.7341945099     3.6684947165
H    -2.4823001447     6.1915325998     4.0513548611
C     0.9134966488     7.9267227877     0.0471501700
H     0.9126879956     9.0157732180     0.0618697113
H     0.2846117587     7.5764147471    -0.7781959311
H     0.5096753628     7.5528310404     0.9943554434
C    10.6172016483    -0.3805249062    -4.8548184808
H    11.2372685918    -0.9329554245    -5.5592178824
H    10.3614237869     0.5930669633    -5.2858347708
H    11.1747070971    -0.2305494324    -3.9242583234
