114
-186.68216785
C    -1.9645448066    -4.6039497982     1.6204250897
C    -0.6143242564    -4.2166862314     1.8284614518
C    -0.2946463607    -2.8292311159     1.8173370412
C    -1.2776085127    -1.9187144643     1.5078085022
C    -2.6095877946    -2.2949353967     1.2168287562
C    -2.9334369933    -3.6267386182     1.3238444857
C     1.0691706119    -2.3380098448     2.1013526562
C     1.7403011230    -2.6995731511     3.3058783302
C     3.0900793278    -2.3019647920     3.4901765421
C     3.7123123524    -1.4978478291     2.5152274100
C     3.0273945730    -1.0560369602     1.4139615401
C     1.7016172509    -1.4979667179     1.2087363187
C    -2.2990804104    -5.9745285490     1.6686135094
C    -1.3379027827    -6.9239888512     1.8701665039
C     0.0047337542    -6.5439721644     2.0135031466
C     0.3596618286    -5.2235240200     1.9922677541
C     1.1008186317    -3.4069406892     4.3462641987
C     1.7809438774    -3.7532933556     5.4808277037
C     3.1319712723    -3.4102827417     5.6356952792
C     3.7688317631    -2.6915600834     4.6639973239
C    -3.5677068909    -1.2959769558     0.7200759828
C    -3.5965571920     0.0041855660     1.2125837619
C    -4.4052916323     0.9715193913     0.6238442207
C    -5.2528259188     0.6072173248    -0.4153769048
C    -5.2770258890    -0.7008748066    -0.8904154957
C    -4.4141799228    -1.6371578650    -0.3319178832
C     3.6472795970    -0.1139061345     0.4577850591
C     4.6636295647    -0.5331438352    -0.3876641240
C     5.2614025459     0.3642157848    -1.2684163842
C     4.8337524998     1.6878103905    -1.2747918422
C     3.8232054328     2.1255217106    -0.4245052780
C     3.2297693489     1.2091900857     0.4396981461
O    -0.9336889796    -0.5732885661     1.4466155336
O     1.0734095051    -1.1117827233     0.0337647072
P    -0.1859158169    -0.1222480176     0.1178133465
O     0.0631718172     1.3119609648     0.0773655344
O    -1.0509640629    -0.6734284476    -1.0975944319
H    -3.9517634136    -3.9441265599     1.1538352700
H     4.7362477931    -1.1870773462     2.6639338422
H    -3.3324337626    -6.2573774859     1.5286486661
H    -1.6013921157    -7.9707416195     1.9033603130
H     0.7612272019    -7.3044094873     2.1380415112
H     1.3962530109    -4.9412103861     2.0921632526
H     0.0577710481    -3.6640388479     4.2446532809
H     1.2760579229    -4.2915639532     6.2691826563
H     3.6566341846    -3.7030787211     6.5329990263
H     4.8012883296    -2.3963809731     4.7827006159
H    -2.9968220053     0.2753959370     2.0661428118
H    -5.8654594903     1.3590720597    -0.8910054817
H    -4.3960515822    -2.6424565479    -0.7248587012
H     4.9974344956    -1.5599659633    -0.3514013836
H     5.2698411416     2.3799030630    -1.9801627444
H     2.4545039248     1.5320529904     1.1166155035
H    -1.2218966076     0.0335090390    -1.7177380927
C    -4.3018040473     2.3721392513     1.0576291014
C    -3.0479158927     2.9330455268     1.2790609432
C    -5.4276733318     3.1776287527     1.2194406590
C    -2.9124777623     4.2598278495     1.6459763588
H    -2.1593110793     2.3360377833     1.1342510117
C    -5.3021418524     4.4967984922     1.5956855116
H    -6.4114033041     2.7583174530     1.0664111288
C    -4.0408740026     5.0554330923     1.8090869832
H    -1.9209277703     4.6564213786     1.7970086371
H    -6.1692715117     5.1241759907     1.7307232659
C    -6.1811392326    -1.0798363545    -1.9862413080
C    -7.4860319909    -0.6026638175    -2.0277260138
C    -5.7583413067    -1.9280972700    -3.0098814160
C    -8.3524800065    -0.9559088884    -3.0468819554
H    -7.8424718036     0.0415791661    -1.2372540270
C    -6.6096381505    -2.2801528180    -4.0328841680
H    -4.7431500726    -2.2964550111    -3.0129815288
C    -7.9202344455    -1.8000750133    -4.0633846146
H    -9.3595684183    -0.5692029448    -3.0348739068
H    -6.2847942742    -2.9294828787    -4.8306663391
C     3.3922486294     3.5308431887    -0.4266670728
C     2.0501517605     3.8628044476    -0.2713957021
C     4.3161713852     4.5657856599    -0.5737299932
C     1.6358723648     5.1829263630    -0.2635306360
H     1.3136109610     3.0812707701    -0.1748628592
C     3.9123266141     5.8825577607    -0.5597861018
H     5.3668109827     4.3365200698    -0.6758504070
C     2.5642580973     6.2074195087    -0.4048062340
H     0.5840089056     5.3947988304    -0.1506319459
H     4.6243522997     6.6864080508    -0.6640286108
C     6.3287358575    -0.0816012672    -2.1756587887
C     6.2539865798    -1.3182059160    -2.8172368771
C     7.4410107627     0.7156198983    -2.4193306613
C     7.2511129426    -1.7342477728    -3.6703343434
H     5.3912163495    -1.9483202050    -2.6602165396
C     8.4525178191     0.3047875654    -3.2694325407
H     7.5327152677     1.6692311585    -1.9202579517
C     8.3655110335    -0.9275346947    -3.9065480552
H     7.1931565195    -2.6860068687    -4.1748681956
H     9.3014492213     0.9525635427    -3.4237053235
O     9.2956666847    -1.4343043073    -4.7651010587
O     2.2685870782     7.5413430707    -0.4040877189
O    -8.6802773529    -2.2128305042    -5.1161890870
O    -4.0255499045     6.3725691010     2.1652550663
C   -10.0074018301    -1.7569582263    -5.2067230136
H   -10.0539152219    -0.6661199951    -5.2897613989
H   -10.4114626127    -2.2033796637    -6.1140104642
H   -10.6044091785    -2.0818422090    -4.3481395498
C    -2.7822056449     6.9927205458     2.3784380504
H    -2.2287140536     6.5178824507     3.1951854525
H    -2.1686973295     6.9849130430     1.4709180913
H    -3.0082085850     8.0231540846     2.6489046978
C    10.4352463801    -0.6625886948    -5.0518487503
H    10.1688546770     0.2912295382    -5.5191865160
H    11.0302306298    -0.4725716013    -4.1523017521
H    11.0233282287    -1.2534963112    -5.7524564856
C     0.9297511459     7.9277471887    -0.2254643201
H     0.5401775122     7.5920943341     0.7420847527
H     0.9294945706     9.0165441726    -0.2531668479
H     0.2885103563     7.5463815201    -1.0273138492
