114
-186.68216286
C    -2.2488727737    -4.8116553836     1.1285413287
C    -0.8461130585    -4.5891168595     1.1500299995
C    -0.3684123091    -3.2534599628     1.2720559342
C    -1.2767994156    -2.2211685390     1.2653619800
C    -2.6736709451    -2.4209095376     1.1706921673
C    -3.1332287175    -3.7154541790     1.1479425992
C     1.0663355635    -2.9256835504     1.4025117134
C     1.8572363637    -3.5207410995     2.4298743378
C     3.2456263597    -3.2314479567     2.4873613893
C     3.7887384293    -2.2761485939     1.6064470030
C     3.0018735623    -1.6146860222     0.7005941476
C     1.6440390155    -1.9857021725     0.5739774185
C    -2.7290664371    -6.1359498566     1.0377996051
C    -1.8661117111    -7.1894895494     0.9297318331
C    -0.4824638603    -6.9626620028     0.8897245224
C     0.0167188040    -5.6940593367     0.9964217870
C     1.3084127039    -4.3608637592     3.4223287980
C     2.1038572137    -4.9400913684     4.3720304428
C     3.4866612999    -4.7075998637     4.3838802220
C     4.0421609860    -3.8609741092     3.4669558118
C    -3.5510833075    -1.2559128018     0.9793641298
C    -3.3259826000    -0.0573839009     1.6480111109
C    -4.0271376107     1.0951808267     1.3058688832
C    -5.0305652555     1.0149367669     0.3473566215
C    -5.3169865738    -0.1902002784    -0.2882124522
C    -4.5562005205    -1.3135992935     0.0178653212
C     3.5388675675    -0.4750955340    -0.0727581312
C     3.1002886192     0.8047307835     0.2417293592
C     3.6380014585     1.9146148516    -0.4029752337
C     4.6060280838     1.7183521429    -1.3817986274
C     5.0438973838     0.4414807828    -1.7186156079
C     4.5110276578    -0.6546188449    -1.0451349337
O    -0.7977775467    -0.9149010423     1.2836030214
O     0.9271938884    -1.4059451069    -0.4611183048
P    -0.2850687798    -0.4110573134    -0.1385295015
O    -0.0210568405     1.0191945453    -0.1832517556
O    -1.3557963302    -0.9025753214    -1.2087169378
H    -4.1959624335    -3.9057030601     1.1140657627
H     4.8350894857    -2.0199491279     1.6887107564
H    -3.7974271649    -6.2972950810     1.0415708582
H    -2.2422832025    -8.1992244083     0.8576881634
H     0.1895479201    -7.7994297257     0.7702190822
H     1.0818332417    -5.5259570755     0.9544831387
H     0.2441807433    -4.5372306568     3.4351415200
H     1.6663264918    -5.5790673445     5.1246442848
H     4.1014978700    -5.1846579428     5.1325559166
H     5.1008026525    -3.6459839612     3.4843640930
H    -2.6004290957    -0.0094331941     2.4439296686
H    -5.5604452595     1.9099278524     0.0559312636
H    -4.7381395362    -2.2399239360    -0.5059510427
H     2.3590596824     0.9409251102     1.0143414727
H     5.0283265629     2.5743717463    -1.8877927624
H     4.8328897550    -1.6541160857    -1.2987411412
H    -1.6624797904    -0.1530155930    -1.7170116518
C    -3.6344274291     2.3855886779     1.8901224495
C    -4.5704095942     3.3408265240     2.2825842664
C    -2.2828120853     2.6931541100     2.0171206603
C    -4.1662097099     4.5580647652     2.7859675468
H    -5.6252390401     3.1193833067     2.2072498108
C    -1.8682152948     3.9144126319     2.5154801070
H    -1.5393123801     1.9838905797     1.6857988420
C    -2.8083679479     4.8630399571     2.9027871718
H    -4.8858761175     5.2998520454     3.0956403239
H    -0.8108999016     4.1134981880     2.5880750072
C    -6.3771735790    -0.2626232455    -1.3045002152
C    -6.2005453368    -0.9970984728    -2.4774837218
C    -7.5836440309     0.4038191515    -1.1246984847
C    -7.1921330918    -1.0567929236    -3.4304829283
H    -5.2652296806    -1.5081544277    -2.6521451259
C    -8.5897044461     0.3453905898    -2.0727474717
H    -7.7513989520     0.9647622341    -0.2169235329
C    -8.4016736634    -0.3863851920    -3.2396981639
H    -7.0566501149    -1.6167507215    -4.3424832510
H    -9.5131864930     0.8718732077    -1.8886147694
C     6.0573110297     0.2518531129    -2.7666721030
C     6.0216989912     1.0016272579    -3.9367082087
C     7.0793644174    -0.6859667283    -2.6186761144
C     6.9644234959     0.8285640085    -4.9345851855
H     5.2290231201     1.7205027605    -4.0838711061
C     8.0271882137    -0.8612433609    -3.6017031128
H     7.1409513499    -1.2691213955    -1.7118130405
C     7.9801113826    -0.1069302594    -4.7752265970
H     6.8931901750     1.4258430649    -5.8302875457
H     8.8233535553    -1.5802409539    -3.4880495840
C     3.1965077979     3.2697641601    -0.0371303280
C     4.1095713082     4.3042456886     0.1279684698
C     1.8423961780     3.5426089452     0.1602629385
C     3.7000476978     5.5742035264     0.4999066009
H     5.1646105076     4.1145486711    -0.0102416915
C     1.4262760496     4.8073152746     0.5104383641
H     1.1145411826     2.7617613796     0.0160837075
C     2.3498545722     5.8360474772     0.6978767854
H     4.4430875691     6.3454631721     0.6329383640
H     0.3776406515     5.0257372223     0.6387733463
O     1.8274234220     7.0427745656     1.0742059125
O     8.9618713335    -0.3620489033    -5.6864491023
O    -9.3153366788    -0.5120014669    -4.2428670046
O    -2.5136490816     6.0982454083     3.3963374655
C   -10.5466404804     0.1553587647    -4.1178289677
H   -11.1113950424    -0.2000247060    -3.2495746900
H   -10.4113775810     1.2394721996    -4.0444331446
H   -11.1013521723    -0.0764426931    -5.0257584549
C    -1.1601657726     6.4683814742     3.5197559549
H    -0.6517852516     6.4881821397     2.5507732510
H    -1.1692771851     7.4732527810     3.9394678672
H    -0.6206825046     5.7996114132     4.1980790978
C     2.7059107055     8.1238071352     1.2603714516
H     3.2475369255     8.3660089478     0.3401124267
H     2.0794437803     8.9692452436     1.5411346704
H     3.4245816873     7.9251988792     2.0625687460
C     8.9660521532     0.3653608286    -6.8895309606
H     9.8232585327    -0.0004711632    -7.4527491890
H     8.0530904864     0.1914874932    -7.4687170309
H     9.0835416254     1.4393502160    -6.7108282964
