114
-186.68221149
C    -1.9349729721    -4.7124201948     0.7487645992
C    -0.6206470486    -4.3275818314     1.1242302582
C    -0.3608945386    -2.9511295701     1.3816746796
C    -1.3606758191    -2.0306030210     1.1763702680
C    -2.6534027857    -2.3912964863     0.7331222423
C    -2.9240995581    -3.7278237316     0.5644269417
C     0.9691481120    -2.4812803203     1.8190584734
C     1.5920391478    -3.0279663079     2.9777913667
C     2.9277523873    -2.6585080744     3.2813901188
C     3.5888092607    -1.7288340678     2.4557486137
C     2.9488461061    -1.1199541366     1.4070351922
C     1.6232169805    -1.5018954268     1.1010553673
C    -2.2117779260    -6.0781206239     0.5238414599
C    -1.2267061996    -7.0189784113     0.6254948549
C     0.0843210015    -6.6305657630     0.9380159047
C     0.3820523125    -5.3179626926     1.1799962205
C     0.9158661053    -3.8962351899     3.8609890795
C     1.5478186193    -4.4092539885     4.9597245046
C     2.8845008908    -4.0824405999     5.2313678600
C     3.5566515127    -3.2194381323     4.4128290124
C    -3.6315446598    -1.3494679858     0.3879409222
C    -4.3717276753    -1.4766214975    -0.7839047992
C    -5.2605825545    -0.4830273554    -1.1789072521
C    -5.3826810912     0.6624411404    -0.3979283071
C    -4.6449691479     0.8114564002     0.7706384418
C    -3.7910286834    -0.2118489825     1.1701442592
C     3.6461535719    -0.1053090137     0.5906704436
C     4.7593299343    -0.4760922203    -0.1516519438
C     5.4389297737     0.4634837302    -0.9205936112
C     4.9965999462     1.7819179650    -0.9153972088
C     3.8967748152     2.1746959178    -0.1585168582
C     3.2189595551     1.2146462752     0.5897435882
O    -1.0725954495    -0.6858432196     1.3808285243
O     1.0208500021    -0.9222422389    -0.0061207958
P    -0.2581823482     0.0224203747     0.2127673411
O    -0.0298260271     1.4372885083     0.4719187223
O    -1.0474281834    -0.2804620339    -1.1349425368
H    -3.9141608307    -4.0372401757     0.2630392080
H     4.6109151555    -1.4603050862     2.6802884566
H    -3.2196918892    -6.3617046349     0.2571346099
H    -1.4458055123    -8.0618463349     0.4503683979
H     0.8627457077    -7.3776219774     0.9831675349
H     1.3961189625    -5.0283653294     1.4075820656
H    -0.1168140872    -4.1431971217     3.6677952861
H     1.0158844627    -5.0684230417     5.6295639736
H     3.3705885031    -4.5057250125     6.0978110500
H     4.5787573135    -2.9407467069     4.6245597607
H    -4.2489030405    -2.3569944640    -1.3967784686
H    -6.0254747885     1.4656023891    -0.7272674826
H    -3.2630406121    -0.1212482876     2.1059538153
H     5.0753747633    -1.5091903486    -0.1556924019
H     5.5225587778     2.5153474672    -1.5084138291
H     2.3709566788     1.5003994514     1.1913951490
H    -1.2218067990     0.5392339071    -1.5944755280
C    -6.0431748900    -0.6294807449    -2.4149621919
C    -5.4741287466    -1.1625689372    -3.5656177107
C    -7.3806449151    -0.2358817265    -2.4641007201
C    -6.2033298034    -1.3014053081    -4.7334044141
H    -4.4344521841    -1.4562414110    -3.5595639377
C    -8.1176425226    -0.3766054407    -3.6181161985
H    -7.8508819397     0.1649824325    -1.5785186478
C    -7.5369268500    -0.9104577287    -4.7700407622
H    -5.7196504367    -1.7122739487    -5.6059272233
H    -9.1542754705    -0.0812323609    -3.6582773039
C    -4.7220148227     2.0489003811     1.5593508330
C    -3.5605489709     2.6281494305     2.0598398039
C    -5.9397609630     2.6801733200     1.8081114593
C    -3.6038778048     3.8030352670     2.7889937402
H    -2.6030468429     2.1707971334     1.8550900269
C    -5.9930008216     3.8447658454     2.5411245326
H    -6.8548755574     2.2399633799     1.4399580409
C    -4.8237201647     4.4216058208     3.0398484027
H    -2.6793873285     4.2244458599     3.1510566976
H    -6.9324987663     4.3338439296     2.7455938294
C     3.4655979978     3.5798067695    -0.1412736487
C     2.1165676209     3.9136950062    -0.0727935700
C     4.3991060700     4.6163847119    -0.1895458160
C     1.7045515035     5.2346306224    -0.0636680254
H     1.3708493231     3.1354873781    -0.0354666868
C     3.9975150791     5.9334061020    -0.1743488255
H     5.4545220614     4.3880892328    -0.2136944190
C     2.6420109881     6.2594124657    -0.1156015092
H     0.6479370514     5.4468712762    -0.0156087400
H     4.7171566927     6.7366971208    -0.2034294484
C     6.6083533726     0.0697912384    -1.7199324813
C     6.8069923779     0.5795683617    -2.9977495052
C     7.5528627664    -0.8246592051    -1.2158860831
C     7.9043033286     0.2157977169    -3.7581502471
H     6.0803303818     1.2587542152    -3.4191087716
C     8.6521564990    -1.1880899871    -1.9606471698
H     7.4321932062    -1.2218121886    -0.2189314883
C     8.8413689836    -0.6728611252    -3.2440363683
H     8.0145626350     0.6299135037    -4.7483300482
H     9.3889483458    -1.8730899690    -1.5712171424
O     9.9596050451    -1.0991946769    -3.8974118620
O     2.3501092212     7.5931842310    -0.1107930145
O    -4.9861861281     5.5761111192     3.7470807448
O    -8.3517041090    -1.0031199279    -5.8581540134
C    -3.8457481583     6.2001034481     4.2830694800
H    -4.2104610276     7.0846227402     4.8031907851
H    -3.3278729130     5.5497641388     4.9955316702
H    -3.1471018554     6.5058381325     3.4972574045
C    -7.8263432278    -1.5371641615    -7.0480750346
H    -8.6440570220    -1.5166872256    -7.7668360613
H    -6.9962223924    -0.9329913688    -7.4288303234
H    -7.4910499861    -2.5706971143    -6.9122789337
C    10.2094736677    -0.6079197023    -5.1907387755
H    11.1418944275    -1.0724797993    -5.5079669099
H     9.4124708534    -0.8858394226    -5.8884475554
H    10.3299342906     0.4804826289    -5.1920521784
C     1.0015045580     7.9818244688    -0.0362840239
H     1.0072416615     9.0709355149    -0.0390893281
H     0.4294849596     7.6214843801    -0.8978169855
H     0.5300379688     7.6253210433     0.8855721562
