114
-186.68216198
C    -1.7677791888    -4.6472864021     1.1621582067
C    -0.5202411774    -4.1381383832     1.6108722644
C    -0.3527780678    -2.7267650828     1.7032603429
C    -1.3699271802    -1.9030414221     1.2853136254
C    -2.5944765548    -2.3956890247     0.7815968570
C    -2.7805663617    -3.7562891343     0.7585689797
C     0.9046155160    -2.1246493140     2.1909960087
C     1.4297042444    -2.4690225004     3.4692813367
C     2.7107871936    -1.9855170268     3.8399078905
C     3.4148355377    -1.1534960544     2.9488912027
C     2.8619388592    -0.7360051257     1.7647211199
C     1.5845133717    -1.2205845296     1.4015314130
C    -1.9532224979    -6.0447308212     1.0927553103
C    -0.9411483728    -6.9031857715     1.4164095162
C     0.3084499741    -6.3989183776     1.8055038289
C     0.5161181400    -5.0504710632     1.8989193856
C     0.7055242775    -3.2429308212     4.4007033748
C     1.2435242061    -3.5581108795     5.6176831587
C     2.5294120229    -3.1182373085     5.9648200205
C     3.2441078217    -2.3428104031     5.0962146887
C    -3.5920525915    -1.4615425221     0.2397227849
C    -3.9054069974    -0.2795963228     0.8996675665
C    -4.7884231500     0.6356079544     0.3359436564
C    -5.3859414592     0.3381716488    -0.8833699602
C    -5.1011183347    -0.8502196719    -1.5493800774
C    -4.1959798360    -1.7407676993    -0.9820172390
C     3.6188861827     0.1613654677     0.8693678099
C     3.1356145066     1.4188025922     0.5365867866
C     3.8758193845     2.2628988675    -0.2891390561
C     5.0983659392     1.8166880378    -0.7825855566
C     5.5997170900     0.5627261030    -0.4510657112
C     4.8523180120    -0.2582299675     0.3868471595
O    -1.1663686119    -0.5275547440     1.3238176263
O     1.0633885138    -0.8338981396     0.1754845927
P    -0.2737253627     0.0553211069     0.1435563061
O    -0.1315639435     1.5030752281     0.2126928039
O    -0.9181892596    -0.4794263283    -1.2092860705
H    -3.7187238667    -4.1599259829     0.4067049128
H     4.3996837128    -0.8049588453     3.2242843494
H    -2.9121872070    -6.4208741887     0.7666992928
H    -1.0904034356    -7.9712500847     1.3598835011
H     1.1117546390    -7.0852731392     2.0284411357
H     1.4849077334    -4.6730126351     2.1869783399
H    -0.2897349263    -3.5749501268     4.1475746808
H     0.6755390903    -4.1465087307     6.3229136459
H     2.9418753194    -3.3854979693     6.9264074580
H     4.2263729403    -1.9790129695     5.3608317210
H    -3.4762998565    -0.0730600154     1.8673959237
H    -6.0460537091     1.0603614534    -1.3410687214
H    -3.9524609069    -2.6577529135    -1.4974487000
H     2.1930876739     1.7516142244     0.9406590585
H     5.6747937310     2.4573455428    -1.4331816019
H     5.2131644261    -1.2449829782     0.6385144300
H    -1.0683793340     0.2524517250    -1.8052902936
C    -5.0495784138     1.9131833668     1.0132295978
C    -6.3361146213     2.4442366801     1.0917647734
C    -4.0017218570     2.6278327100     1.5839368368
C    -6.5662246184     3.6427667577     1.7296345275
H    -7.1660037667     1.8987173400     0.6668839850
C    -4.2222182983     3.8372388389     2.2185260072
H    -2.9929445813     2.2475670806     1.5093395190
C    -5.5102422128     4.3548014310     2.3011292012
H    -7.5604307872     4.0549138294     1.8032358106
H    -3.3811698671     4.3647831555     2.6400817856
C    -5.7297132560    -1.1479066945    -2.8446671267
C    -7.0694154875    -0.8554149897    -3.0720607505
C    -4.9980884109    -1.7278040868    -3.8814314775
C    -7.6724563925    -1.1288682491    -4.2868885080
H    -7.6624327367    -0.4238637568    -2.2789777626
C    -5.5860594620    -1.9976495823    -5.0965758831
H    -3.9506524303    -1.9479013906    -3.7371004181
C    -6.9329138737    -1.7021437022    -5.3150732335
H    -8.7170120169    -0.8926113209    -4.4172523457
H    -5.0222265663    -2.4382461117    -5.9037880706
C     6.9004851068     0.1157193331    -0.9703972603
C     7.2794382679     0.3820128431    -2.2809654918
C     7.7933311378    -0.5839765101    -0.1582895749
C     8.5029684612    -0.0316923485    -2.7774354265
H     6.5985905464     0.9049103066    -2.9366200659
C     9.0161697210    -0.9942562810    -0.6393976299
H     7.5315173798    -0.7883993251     0.8692632387
C     9.3866693072    -0.7240165958    -1.9577442340
H     8.7527378667     0.1899717705    -3.8033853589
H     9.7126456599    -1.5281804506    -0.0120243921
C     3.3816258761     3.6041908421    -0.6319455726
C     4.2634714643     4.6753610721    -0.7866188455
C     2.0230662265     3.8427063030    -0.8149136834
C     3.8046928247     5.9298527341    -1.1206076276
H     5.3204278958     4.5300295750    -0.6187121267
C     1.5542011652     5.0988916633    -1.1565680832
H     1.3142258169     3.0388242940    -0.6959351022
C     2.4418511460     6.1562217176    -1.3169819417
H     4.4838873967     6.7604168830    -1.2340768135
H     0.4928609119     5.2357463143    -1.2926508601
O     2.0926202937     7.4319592290    -1.6546885717
O    10.6167185665    -1.1757736958    -2.3344931730
O    -7.4162016285    -2.0098576525    -6.5512755978
O    -5.8454792426     5.5301986064     2.9053523505
C    -8.7627210323    -1.7226544051    -6.8370804922
H    -8.9726615939    -0.6512858885    -6.7527636089
H    -8.9196965419    -2.0390722597    -7.8671112489
H    -9.4412585941    -2.2786261533    -6.1816440103
C    -4.8270149196     6.2870872079     3.5115659593
H    -5.3199888467     7.1636647583     3.9292912266
H    -4.3365013994     5.7303710738     4.3166971579
H    -4.0755777480     6.6083783644     2.7828600050
C     0.7318052256     7.7216400943    -1.8547002482
H     0.3119411286     7.1361629224    -2.6794903182
H     0.1441351622     7.5425064214    -0.9483039503
H     0.6892235016     8.7801450041    -2.1076087042
C    11.0494231152    -0.9270622076    -3.6488062655
H    11.1137228762     0.1463733445    -3.8555750416
H    12.0432618835    -1.3663944808    -3.7205048113
H    10.3919783766    -1.4000685453    -4.3858831774
