114
-186.68213282
C    -1.8628819291    -4.5661976989     1.2323092248
C    -0.5730608556    -4.1072373030     1.6091797002
C    -0.3459547858    -2.7036632736     1.6920672033
C    -1.3498660799    -1.8388079505     1.3272293312
C    -2.6182109447    -2.2825925329     0.8900308516
C    -2.8594038592    -3.6351066680     0.8834680282
C     0.9592724098    -2.1553859134     2.1121537961
C     1.5423817285    -2.5279833173     3.3570888245
C     2.8620720904    -2.1008668747     3.6548467009
C     3.5474893696    -1.2903790700     2.7294702555
C     2.9432175043    -0.8426136222     1.5828291315
C     1.6305167315    -1.2755304620     1.2891688059
C    -2.1075461009    -5.9551270499     1.1759218360
C    -1.1134525149    -6.8532877543     1.4423423552
C     0.1754691845    -6.3992083864     1.7581410365
C     0.4412956855    -5.0601631261     1.8381542126
C     0.8407426246    -3.2757362957     4.3263751331
C     1.4340258149    -3.6208431744     5.5090398362
C     2.7555810545    -3.2385198916     5.7823581543
C     3.4512814160    -2.4886758584     4.8766011279
C    -3.6086216748    -1.3158424015     0.3943834222
C    -3.8332895850    -0.1094245704     1.0462605674
C    -4.7149235402     0.8292498503     0.5196341137
C    -5.4065988790     0.5294737229    -0.6483716303
C    -5.2133263482    -0.6834464627    -1.3026464645
C    -4.3030210842    -1.5947131058    -0.7787014748
C     3.6691910735     0.0433301552     0.6502981040
C     3.2400077413     1.3436757650     0.4283946819
C     3.9453328825     2.1813401124    -0.4331115567
C     5.0747502876     1.6849231266    -1.0772682162
C     5.5198536576     0.3854281850    -0.8601303712
C     4.8117772805    -0.4288212495     0.0180871318
O    -1.0913522632    -0.4727797287     1.3599486163
O     1.0600129306    -0.8601965889     0.0953028081
P    -0.2330633614     0.0910010762     0.1454887934
O    -0.0188323131     1.5288897210     0.2331424758
O    -0.9700257662    -0.3870996114    -1.1805211831
H    -3.8312297839    -4.0014203727     0.5865362483
H     4.5597208536    -0.9830331836     2.9490586906
H    -3.0976311201    -6.2925887401     0.9053095472
H    -1.3077741899    -7.9145579304     1.3958250468
H     0.9626145664    -7.1170368753     1.9349084089
H     1.4393449177    -4.7218300012     2.0692658580
H    -0.1807907948    -3.5634117447     4.1300583973
H     0.8829394084    -4.1885211663     6.2440171541
H     3.2111564586    -3.5288235502     6.7174549873
H     4.4616732327    -2.1681049491     5.0854720679
H    -3.3362318904     0.0992479640     1.9802892815
H    -6.0700648064     1.2661220231    -1.0773061468
H    -4.1287440065    -2.5294511427    -1.2902312429
H     2.3682331605     1.7122660010     0.9449729069
H     5.6218417089     2.3210857005    -1.7570257676
H     5.1288384762    -1.4478985927     0.1862429778
H    -1.0983914332     0.3592326568    -1.7635218621
C    -4.8764905801     2.1317114306     1.1803623820
C    -6.1302873733     2.7240367192     1.3240826561
C    -3.7639456169     2.8096844769     1.6675825243
C    -6.2657970410     3.9464116956     1.9435544295
H    -7.0090380705     2.2085194238     0.9651679303
C    -3.8896497140     4.0422490540     2.2831350563
H    -2.7796717994     2.3815925588     1.5418750434
C    -5.1452172660     4.6213710249     2.4307543363
H    -7.2338410135     4.4061707045     2.0669906269
H    -3.0008838266     4.5391044720     2.6389442019
C    -5.9475737598    -0.9925624947    -2.5384149285
C    -5.3151282813    -1.6193802779    -3.6123501904
C    -7.2939650837    -0.6723169700    -2.6666342411
C    -6.0058391938    -1.9107910612    -4.7669398578
H    -4.2644617094    -1.8603330731    -3.5458341167
C    -8.0000477055    -0.9680013557    -3.8192129627
H    -7.8102282861    -0.2020372658    -1.8424581089
C    -7.3599157587    -1.5916083197    -4.8841322740
H    -5.5193728613    -2.3884881606    -5.6028649229
H    -9.0462844729    -0.7101724338    -3.8723853900
C     6.7221503792    -0.1168914939    -1.5410857326
C     7.6444648959    -0.9102697629    -0.8687654916
C     6.9732970565     0.1920808876    -2.8781351668
C     8.7842686685    -1.3827325259    -1.4950434595
H     7.4832114914    -1.1487672298     0.1724678232
C     8.1002955776    -0.2785246720    -3.5134852245
H     6.2634989160     0.7908182435    -3.4292745925
C     9.0226616459    -1.0713678897    -2.8285312589
H     9.4775727514    -1.9882309179    -0.9320897835
H     8.2943206665    -0.0481431017    -4.5493104714
C     3.5115170998     3.5687589816    -0.6503786949
C     2.1605043520     3.9001836630    -0.6817388143
C     4.4448778834     4.5915259384    -0.8269055285
C     1.7468229132     5.2034863134    -0.8938804955
H     1.4146204883     3.1326918196    -0.5476765876
C     4.0414865153     5.8919535880    -1.0317943461
H     5.5007391284     4.3694945151    -0.7780425828
C     2.6843419373     6.2138354394    -1.0729062932
H     0.6889739694     5.4137525281    -0.9158687571
H     4.7607686450     6.6856713512    -1.1606963485
O     2.3910350709     7.5297765180    -1.2874728558
O    10.1057168892    -1.4813707247    -3.5482424608
O    -7.9501681353    -1.9293370387    -6.0648306374
O    -5.3885577029     5.8249391890     3.0235455333
C    -9.3127513473    -1.6321119520    -6.2444110953
H    -9.9384384309    -2.1521661782    -5.5114593632
H    -9.5016115708    -0.5551975147    -6.1844549504
H    -9.5624699971    -1.9850571006    -7.2438137529
C    -4.3008673542     6.5474776918     3.5454232811
H    -3.5844134285     6.8181775995     2.7628285955
H    -4.7267207194     7.4545705384     3.9717498834
H    -3.7845885253     5.9866802030     4.3313766705
C     1.0401549484     7.9156836924    -1.3271410354
H     1.0450222604     8.9905007451    -1.5031573103
H     0.5024497264     7.4188251149    -2.1415574852
H     0.5335625801     7.7069788804    -0.3789926615
C    11.0649764329    -2.2907199701    -2.9150053842
H    10.6310998234    -3.2352934277    -2.5703526351
H    11.8215409760    -2.4979526892    -3.6703175064
H    11.5319176147    -1.7755209119    -2.0689067493
