102
-166.33775636
C     4.4098017697    -3.6507327637     1.1535682623
C     3.1417207105    -4.2508753215     0.9298705843
C     2.1581296349    -3.5298992015     0.1959448590
C     2.4382779434    -2.2458334048    -0.2199425064
C     3.6669566085    -1.6082899123     0.0784468664
C     4.6373152016    -2.3267495538     0.7299191018
C     0.8079648304    -4.0696028211    -0.0694732562
C     0.5824119814    -5.2885502487    -0.7673530073
C    -0.7562334158    -5.7139320807    -0.9816292725
C    -1.8244479406    -4.8863858159    -0.5833164812
C    -1.6048967337    -3.6815936224     0.0367605948
C    -0.2728186244    -3.3147278997     0.3282154744
C     5.3987534776    -4.3762753972     1.8514051479
C     5.1371241743    -5.6240886604     2.3421500964
C     3.8654444064    -6.1916224049     2.1740054009
C     2.8902764721    -5.5220167107     1.4879542661
C     1.6319049635    -6.0639871590    -1.3029331721
C     1.3729837013    -7.2350073112    -1.9599820586
C     0.0544217002    -7.6857646860    -2.1196053244
C    -0.9862630849    -6.9358089474    -1.6494766088
C     3.7812104354    -0.1664081509    -0.1943656446
C     3.4267319471     0.3768838134    -1.4259313069
C     3.3276899020     1.7451347572    -1.5797895109
C     3.5863429284     2.5992899658    -0.5128944165
C     4.0233879601     2.0606305511     0.6922942495
C     4.1165532797     0.6919400362     0.8511105211
C    -2.6584073418    -2.6846965853     0.2695630611
C    -2.7731466207    -2.0002666127     1.4752772470
C    -3.6256726442    -0.9199197394     1.5859044035
C    -4.3741707099    -0.4961302447     0.4930770446
C    -4.3147900318    -1.2284320178    -0.6887136136
C    -3.4710207551    -2.3135809602    -0.7984339552
O     1.4792123671    -1.5222150820    -0.9133726582
O    -0.0378956774    -2.1030962101     0.9714441949
P     0.2518829005    -0.9075271114    -0.0773716375
O    -0.8203976280    -0.4515624642    -0.9362465892
O     0.8226746547     0.2077005238     0.8905860628
H     5.5890320997    -1.8639266864     0.9470104419
H    -2.8355651868    -5.1971303224    -0.8025100037
H     6.3661101013    -3.9178437227     1.9977430495
H     5.8991860856    -6.1730885949     2.8749090046
H     3.6586721187    -7.1646269277     2.5939925636
H     1.9118246963    -5.9616722259     1.3716878333
H     2.6486975277    -5.7188436890    -1.1942756484
H     2.1865313285    -7.8189181134    -2.3640831807
H    -0.1308090297    -8.6189046320    -2.6305640167
H    -2.0070515949    -7.2599740265    -1.7913610972
H     3.2089722613    -0.2763745101    -2.2566302386
H     3.0180152076     2.1611116890    -2.5270361065
H     4.2521176995     2.7200913333     1.5171110235
H     4.4099646632     0.2775699151     1.8062737666
H    -2.1813192614    -2.3078893893     2.3248749095
H    -3.6844709419    -0.3698906133     2.5144604107
H    -4.9138725757    -0.9199389000    -1.5331924573
H    -3.3916271858    -2.8449023512    -1.7353194254
H     1.4427196999    -0.0941525694     1.5557828863
C     3.3322148634     4.0506555566    -0.6394745892
C     4.3897788519     4.9477029110    -0.8295969692
C     2.0083502415     4.5069699116    -0.5530179679
C     4.1138250788     6.3459903476    -0.9450457629
C     5.7382632216     4.5146936092    -0.9230524245
C     1.7407465048     5.9066172921    -0.6743743657
C     0.9162968851     3.6283127268    -0.3243249713
C     5.1975671664     7.2413756715    -1.1350983898
C     2.7977877857     6.7908444084    -0.8694119460
C     6.7497389136     5.4067057895    -1.1058205268
H     5.9455075058     3.4568502771    -0.8475065720
C     0.3978832312     6.3562578548    -0.5841745467
C    -0.3560588097     4.1025914828    -0.2277235881
H     1.1010886067     2.5696567852    -0.2202353739
C     6.4777204978     6.7871131806    -1.2108621948
H     4.9796258526     8.2967811543    -1.2187573867
H     2.5920897128     7.8487120430    -0.9599002887
H     7.7725785662     5.0656432872    -1.1745193589
H     0.2071323112     7.4153812196    -0.6872854088
C    -0.6211612584     5.4808266565    -0.3671940653
H    -1.1730077482     3.4208214762    -0.0463900329
H     7.2971996252     7.4761356438    -1.3549310005
H    -1.6416172974     5.8283480047    -0.2957895600
C    -5.1758218375     0.7415963393     0.5627773754
C    -4.7670054210     1.8551307964    -0.1893895513
C    -6.3206080133     0.8040908000     1.3696685136
C    -5.5422679169     3.0563248606    -0.1394460396
C    -3.5933883677     1.8429234700    -0.9900445380
C    -7.0778686663     2.0157628685     1.4266340073
C    -6.7768490262    -0.3087591962     2.1236609046
C    -5.1327927294     4.1704760606    -0.9165897921
C    -6.6743713467     3.1095748676     0.6681046377
C    -3.2398165412     2.9336634160    -1.7257976455
H    -2.9687562943     0.9623582312    -1.0034481619
C    -8.2299059183     2.0653532609     2.2529534285
C    -7.8893461715    -0.2214555679     2.9031324289
H    -6.2230086653    -1.2342366678     2.0638563189
C    -4.0191564141     4.1087449170    -1.6957441577
H    -5.7308158681     5.0702627264    -0.8730702881
H    -7.2546903396     4.0215693858     0.7056142106
H    -2.3485014311     2.9065048889    -2.3348014231
H    -8.7904003078     2.9888924055     2.2926581986
C    -8.6227414559     0.9813380449     2.9747541688
H    -8.2242150935    -1.0762166042     3.4729791471
H    -3.7156080001     4.9589048539    -2.2899341826
H    -9.5008661984     1.0276361722     3.6024898738
