114
-186.68224583
C    -2.1333963878    -4.4662349528     2.1712212972
C    -0.7431974359    -4.1763349641     2.1684371229
C    -0.3264098080    -2.8340928725     1.9410915605
C    -1.2741285813    -1.8907681153     1.6203698688
C    -2.6580848672    -2.1753217590     1.5542380948
C    -3.0619248641    -3.4484787998     1.8790562230
C     1.0839647688    -2.4089641164     2.0534596232
C     1.8182751673    -2.6778770932     3.2476154881
C     3.1898674460    -2.3192175498     3.3093718245
C     3.7600764926    -1.5935469467     2.2464133879
C     3.0182419908    -1.2224554621     1.1548944146
C     1.6867506712    -1.6868842600     1.0440707938
C    -2.5544314522    -5.7896272155     2.4244786221
C    -1.6447255541    -6.7896458814     2.6211309224
C    -0.2710806296    -6.5125427121     2.5571984779
C     0.1705000879    -5.2373052863     2.3368118229
C     1.2289725231    -3.2572544787     4.3917151681
C     1.9760035354    -3.5379858648     5.5023804651
C     3.3479037014    -3.2497725074     5.5323887413
C     3.9378863465    -2.6403962682     4.4616548667
C    -3.5854858630    -1.1520364770     1.0476998175
C    -3.4148753025     0.1966299658     1.3428435741
C    -4.1752269868     1.1717530910     0.7039062339
C    -5.1897853584     0.7769381799    -0.1600202303
C    -5.4263143256    -0.5711959617    -0.4147955271
C    -4.5999035373    -1.5250504117     0.1694829565
C     3.5848673656    -0.2847209710     0.1650974936
C     3.0066877772     0.9703152055     0.0199630988
C     3.5852414660     1.9232219443    -0.8135820852
C     4.7372670731     1.5892595213    -1.5175614206
C     5.3194546253     0.3316095164    -1.3949161382
C     4.7402124965    -0.5985929797    -0.5365723285
O    -0.8451571596    -0.6114225656     1.2765268395
O     1.0353300015    -1.4434215409    -0.1542630338
P    -0.2759690515    -0.5265559984    -0.2090062330
O    -0.1181787482     0.8333005885    -0.7022869067
O    -1.2391697722    -1.4233732841    -1.1063469863
H    -4.1142387470    -3.6917660515     1.8830531585
H     4.7879583760    -1.2699829741     2.3239250174
H    -3.6145143743    -5.9976399604     2.4442653859
H    -1.9754751495    -7.8001921513     2.8100039735
H     0.4390572840    -7.3166419185     2.6803698964
H     1.2284584607    -5.0324519685     2.2788826377
H     0.1715563449    -3.4704878664     4.3917058206
H     1.5073846799    -3.9811144876     6.3685057313
H     3.9251876378    -3.4923712129     6.4121501272
H     4.9860722941    -2.3794839946     4.4831633207
H    -2.6872076721     0.5033680253     2.0763608623
H    -5.7708149723     1.5265530100    -0.6768341351
H    -4.7427798763    -2.5687097561    -0.0668606236
H     2.1236825492     1.2216030896     0.5874646972
H     5.1931317728     2.3231476301    -2.1661252283
H     5.1747974988    -1.5821618662    -0.4332287125
H    -1.5390406161    -0.9103497397    -1.8554393523
C    -3.8374613057     2.5908871055     0.8841130966
C    -4.8131152118     3.5788945998     1.0053687667
C    -2.5004363870     2.9786409106     0.8873156160
C    -4.4614240322     4.9054938016     1.1271765139
H    -5.8572369401     3.3014654087     1.0205396763
C    -2.1384596794     4.3080141604     1.0034059691
H    -1.7272831370     2.2361907663     0.7583325771
C    -3.1182164034     5.2879036194     1.1209570977
H    -5.2121000903     5.6742299914     1.2254294281
H    -1.0910132121     4.5639081959     0.9913028539
C    -6.5143444313    -0.9786183682    -1.3160440554
C    -6.3439289818    -2.0136504838    -2.2356330252
C    -7.7487958771    -0.3411153840    -1.2693397717
C    -7.3689588919    -2.3906766012    -3.0738483716
H    -5.3889943571    -2.5131073045    -2.3073990560
C    -8.7880887580    -0.7162531637    -2.1018527024
H    -7.9110985360     0.4515691008    -0.5536940852
C    -8.6066878831    -1.7476803377    -3.0161024032
H    -7.2391754107    -3.1854852030    -3.7915616737
H    -9.7320238328    -0.1994682095    -2.0255386570
C     6.5387293395    -0.0034041268    -2.1449655293
C     6.6985903911     0.3969608327    -3.4664405211
C     7.5705777956    -0.7292430681    -1.5494158130
C     7.8418307248     0.0871420957    -4.1817544925
H     5.9061039652     0.9435784227    -3.9563088534
C     8.7156363473    -1.0365949302    -2.2490789600
H     7.4802902516    -1.0366200771    -0.5181130272
C     8.8651982862    -0.6334375822    -3.5770083817
H     7.9200331901     0.4106250135    -5.2080721274
H     9.5191800943    -1.5907462978    -1.7897619294
C     3.0010216876     3.2697711444    -0.9193727351
C     3.8058422631     4.4029597198    -0.9084589511
C     1.6198231865     3.4395753601    -1.0202736829
C     3.2611725490     5.6747969619    -0.9741401341
H     4.8778676312     4.2978908961    -0.8199068860
C     1.0723297583     4.7000257395    -1.1058463018
H     0.9752057432     2.5771861615    -1.0464099196
C     1.8842391711     5.8339645269    -1.0702602983
H     3.9207320219     6.5285120723    -0.9461532607
H     0.0060871999     4.8303219116    -1.2064851303
O     1.2316463380     7.0350886257    -1.1285195439
O    10.0346785941    -0.9921787137    -4.1791743678
O    -9.5535503780    -2.2007956680    -3.8851762940
O    -2.8766802052     6.6240067139     1.2307459709
C   -10.8179442171    -1.5855838919    -3.8813844545
H   -11.3979431822    -2.0983814574    -4.6471465255
H   -11.3182245207    -1.6987766320    -2.9138758851
H   -10.7491564091    -0.5220251446    -4.1325890474
C    -1.5404652233     7.0702439812     1.2089457779
H    -1.0443337785     6.8299375888     0.2637078480
H    -1.5926375126     8.1522619015     1.3217312707
H    -0.9628036178     6.6493627213     2.0382393542
C     1.9960975574     8.2142300462    -1.1175050519
H     1.2796061284     9.0318460382    -1.1823408795
H     2.5721921536     8.3120336844    -0.1912042810
H     2.6761137415     8.2614544426    -1.9743671124
C    10.2456276558    -0.6115520225    -5.5160000364
H    10.2439769195     0.4775813125    -5.6299023665
H    11.2282448901    -0.9985840466    -5.7815694159
H     9.4940511412    -1.0474608424    -6.1825364638
