114
-186.68224284
C    -1.9148415748    -4.7295915364     0.6513010695
C    -0.6028040495    -4.3465033249     1.0366794630
C    -0.3472107316    -2.9730789144     1.3142948599
C    -1.3493480490    -2.0530384313     1.1200579044
C    -2.6398612299    -2.4112739075     0.6693456224
C    -2.9065359271    -3.7453369835     0.4785252421
C     0.9803115923    -2.5057068727     1.7619950981
C     1.5992781831    -3.0673735557     2.9156285607
C     2.9335064412    -2.7009940325     3.2288362182
C     3.5968679537    -1.7616228252     2.4164949953
C     2.9609208506    -1.1389446211     1.3729972711
C     1.6351772522    -1.5156465004     1.0592620332
C    -2.1870848404    -6.0925798957     0.4056436754
C    -1.1997729190    -7.0321425244     0.4970725082
C     0.1091188533    -6.6446600422     0.8194380734
C     0.4024236218    -5.3348789260     1.0813249142
C     0.9207311831    -3.9478934067     3.7847140132
C     1.5491276732    -4.4746112344     4.8790184454
C     2.8844412792    -4.1500708735     5.1599781685
C     3.5588161358    -3.2759065764     4.3552500273
C    -3.6201685229    -1.3655186998     0.3426656142
C    -3.7937646489    -0.2528329579     1.1568477363
C    -4.6523776116     0.7753525950     0.7809922533
C    -5.3749876353     0.6579146467    -0.4005674725
C    -5.2355277391    -0.4612901047    -1.2159954445
C    -4.3466724177    -1.4624932346    -0.8402302005
C     3.6686739628    -0.1206387827     0.5710318501
C     4.8120533262    -0.4842871749    -0.1284760072
C     5.5082318811     0.4562303754    -0.8809590260
C     5.0506838061     1.7693043400    -0.9034969284
C     3.9202915391     2.1557604741    -0.1895507297
C     3.2270815743     1.1944163288     0.5431314538
O    -1.0658208133    -0.7095783909     1.3407881123
O     1.0349852562    -0.9221472545    -0.0413535695
P    -0.2532385198     0.0103685595     0.1788076164
O    -0.0350453559     1.4257329208     0.4439184759
O    -1.0379482519    -0.2926006612    -1.1714574337
H    -3.8946089044    -4.0523681596     0.1682787751
H     4.6184690922    -1.4965734677     2.6474147834
H    -3.1933486514    -6.3749763599     0.1316127155
H    -1.4155193179    -8.0729981361     0.3065545247
H     0.8894421878    -7.3901762860     0.8564366789
H     1.4149179191    -5.0458640701     1.3165248544
H    -0.1108464100    -4.1936839700     3.5842530945
H     1.0155472885    -5.1434758465     5.5378583215
H     3.3677384650    -4.5842830941     6.0225740563
H     4.5798200276    -2.9989487405     4.5744673434
H    -3.2729073265    -0.1867578816     2.0988122062
H    -6.0189167885     1.4673085832    -0.7121044588
H    -4.2123755304    -2.3241611080    -1.4767896302
H     5.1395449556    -1.5136953123    -0.1123691765
H     5.5889262198     2.5035284849    -1.4843038198
H     2.3560403888     1.4762023929     1.1127980245
H    -1.2044455014     0.5254639040    -1.6367415507
C    -4.7517812138     1.9843374760     1.6102831365
C    -3.6029453855     2.5583696873     2.1446506072
C    -5.9796148978     2.5918142257     1.8682741536
C    -3.6685194789     3.7040112251     2.9173536279
H    -2.6380679461     2.1203139170     1.9326360738
C    -6.0551287172     3.7270454219     2.6442050919
H    -6.8852406916     2.1550514845     1.4734006156
C    -4.8986057901     4.2976034255     3.1785497327
H    -2.7533293328     4.1228756308     3.3050764104
H    -7.0027195452     4.1969134528     2.8564014319
C    -5.9972943225    -0.5718964341    -2.4686220326
C    -5.4034802667    -1.0699916052    -3.6286598653
C    -7.3297192402    -0.1810367871    -2.5304532130
C    -6.1167564164    -1.1672606467    -4.8020417557
H    -4.3640327657    -1.3626780597    -3.6126005052
C    -8.0582301998    -0.2812119647    -3.7024422051
H    -7.8176193574     0.1901785127    -1.6410353917
C    -7.4555654713    -0.7748688312    -4.8538925912
H    -5.6594990140    -1.5440535415    -5.7034640410
H    -9.0924562782     0.0258463770    -3.7033238820
C     3.4738783800     3.5562339707    -0.2011492270
C     4.3973330892     4.6024896643    -0.2335383561
C     2.1200991920     3.8768001912    -0.1770278240
C     3.9817965761     5.9152139723    -0.2466508390
H     5.4554005706     4.3858552537    -0.2228927568
C     1.6941459790     5.1931387466    -0.1964628274
H     1.3812925756     3.0917783526    -0.1493893729
C     2.6218710150     6.2273778023    -0.2330221762
H     4.6937698706     6.7256430838    -0.2640553409
H     0.6344045136     5.3943022916    -0.1818134573
C     6.7113933833     0.0701686664    -1.6325331008
C     6.9541136859     0.5742565921    -2.9049888978
C     7.6454216138    -0.8105160582    -1.0863214077
C     8.0843814901     0.2185235361    -3.6195781906
H     6.2370139981     1.2424917989    -3.3589558093
C     8.7769134523    -1.1659566743    -1.7852345495
H     7.4905514042    -1.2027887863    -0.0921690626
C     9.0105398264    -0.6561471498    -3.0634799072
H     8.2287092899     0.6279253668    -4.6073350605
H     9.5056451991    -1.8400787977    -1.3630294180
O    10.1584532568    -1.0733528695    -3.6695888011
O     2.3158533257     7.5578163952    -0.2533414456
O    -8.0694273120    -0.9139781882    -6.0623063284
O    -5.0831439763     5.4209433109     3.9291884892
C    -9.4148752541    -0.5231555335    -6.1816760092
H    -9.5458073765     0.5418138845    -5.9632657022
H    -9.6862294386    -0.7126901195    -7.2190640942
H   -10.0650709054    -1.1112989413    -5.5255938893
C    -3.9570953702     6.0331724301     4.5076877650
H    -3.2522692990     6.3821225216     3.7458000197
H    -4.3390160582     6.8889820881     5.0623360572
H    -3.4405619877     5.3572086666     5.1968749312
C    10.4531401971    -0.5876747695    -4.9555478597
H     9.6873323611    -0.8794174202    -5.6819523282
H    10.5612382820     0.5020238420    -4.9598138936
H    11.4024829089    -1.0434251480    -5.2328068185
C     0.9614969947     7.9323739694    -0.2235972041
H     0.4657552982     7.5792053631     0.6866932623
H     0.9557609207     9.0214114674    -0.2366530275
H     0.4200042686     7.5578676915    -1.0987358266
