114
-186.68220024
C    -1.8522971088    -4.6183290653     1.2524606890
C    -0.5769071860    -4.1359475983     1.6490154607
C    -0.3750474972    -2.7283051646     1.7290658532
C    -1.3869521317    -1.8831574752     1.3412595790
C    -2.6383580357    -2.3500014366     0.8795115150
C    -2.8572603801    -3.7063369548     0.8780305003
C     0.9098903359    -2.1537822932     2.1763458389
C     1.4694754978    -2.5143846406     3.4357439013
C     2.7722956214    -2.0603208967     3.7657562149
C     3.4620981913    -1.2338010732     2.8584576993
C     2.8774906825    -0.7972013365     1.6970093449
C     1.5824944978    -1.2594684614     1.3697223992
C    -2.0733838400    -6.0114632834     1.2018377617
C    -1.0696203928    -6.8914561842     1.4916365243
C     0.2063210863    -6.4143111832     1.8257031226
C     0.4489081731    -5.0705786336     1.9011371976
C     0.7600260661    -3.2762917110     4.3882340731
C     1.3318991675    -3.6102696447     5.5845711435
C     2.6386634487    -3.2018761774     5.8894957279
C     3.3402009041    -2.4370158964     5.0010486145
C    -3.6286439379    -1.4015879741     0.3492825776
C    -3.8794341221    -0.1871667484     0.9764708593
C    -4.7498438565     0.7387091174     0.4099211453
C    -5.4069584773     0.4171452530    -0.7720110159
C    -5.1902277924    -0.8053334184    -1.4009110908
C    -4.2897146438    -1.7028053814    -0.8377019479
C     3.6122194589     0.1080379354     0.7905894222
C     3.1439694081     1.3878464176     0.5299018952
C     3.8622698908     2.2462636039    -0.3000897809
C     5.0460657571     1.7909517748    -0.8730696393
C     5.5310950970     0.5132172456    -0.6161145468
C     4.8077894611    -0.3218206686     0.2293439100
O    -1.1524515351    -0.5128738451     1.3729014107
O     1.0346462210    -0.8583161856     0.1599114070
P    -0.2841702721     0.0571555459     0.1686734610
O    -0.1139341857     1.5018865779     0.2389347706
O    -0.9763472586    -0.4589106748    -1.1677809974
H    -3.8168862707    -4.0908768314     0.5648634170
H     4.4610999004    -0.9038602661     3.1041661669
H    -3.0532214743    -6.3668909137     0.9171741909
H    -1.2461191280    -7.9560463242     1.4498904364
H     1.0018713823    -7.1180058816     2.0206099813
H     1.4371573412    -4.7142847420     2.1469258896
H    -0.2508184442    -3.5839589554     4.1684926998
H     0.7748401287    -4.1893256818     6.3060386141
H     3.0776908772    -3.4840429783     6.8349121040
H     4.3385426337    -2.0959928151     5.2338889107
H    -3.4112334813     0.0389626614     1.9212183114
H    -6.0607506230     1.1438444893    -1.2315303363
H    -4.0956512224    -2.6443142497    -1.3293625943
H     2.2313409581     1.7259168141     0.9939672750
H     5.6051824025     2.4432866484    -1.5272387618
H     5.1569041616    -1.3250098693     0.4267193710
H    -1.1421776853     0.2817520668    -1.7486483878
C    -4.9317929099     2.0528999839     1.0415027353
C    -3.8328386093     2.7440829056     1.5409179030
C    -6.1902005842     2.6443098202     1.1419969446
C    -3.9763430863     3.9893239847     2.1263410498
H    -2.8446520926     2.3165674638     1.4481009013
C    -6.3434414501     3.8793337136     1.7315256027
H    -7.0586450318     2.1187555423     0.7727613224
C    -5.2364627449     4.5679972371     2.2306051413
H    -3.0975265697     4.4961323214     2.4926699525
H    -7.3152374908     4.3389123589     1.8213540025
C    -5.8871191446    -1.1332713640    -2.6533087806
C    -7.2325958341    -0.8088388210    -2.8283736838
C    -5.2264265704    -1.7734527905    -3.6952989368
C    -7.8887314251    -1.1185933729    -3.9981054228
H    -7.7731746831    -0.3271496422    -2.0272370769
C    -5.8740178214    -2.0828100896    -4.8783589588
H    -4.1790082630    -2.0175182259    -3.5925370901
C    -7.2162201761    -1.7590139563    -5.0405760197
H    -8.9310103513    -0.8767820909    -4.1346967239
H    -5.3206957548    -2.5725498070    -5.6645235807
C     6.7912847113     0.0564611500    -1.2201687265
C     7.1070094173     0.3639169391    -2.5384724137
C     7.7081698032    -0.6938334212    -0.4835338701
C     8.2921318264    -0.0579498106    -3.1147933864
H     6.4055695438     0.9268315918    -3.1367934658
C     8.8935391274    -1.1128272577    -1.0443713985
H     7.4959509670    -0.9314592256     0.5483093061
C     9.2006407818    -0.8006735093    -2.3697368596
H     8.4928278583     0.1970762101    -4.1437681550
H     9.6088229207    -1.6858859072    -0.4754053784
C     3.3864323954     3.6126469757    -0.5593844201
C     2.0270227732     3.8902995374    -0.6643694256
C     4.2868153292     4.6693750808    -0.7055346781
C     1.5742120918     5.1727200362    -0.9192868682
H     1.3051590226     3.0968365873    -0.5535504569
C     3.8441821414     5.9494407116    -0.9533240658
H     5.3466579351     4.4911241730    -0.5983668071
C     2.4794845665     6.2166593349    -1.0687676209
H     0.5114023088     5.3402294275    -0.9974357594
H     4.5377978213     6.7690350046    -1.0590706411
O     2.1464190113     7.5162711932    -1.3214235300
O    10.3977709232    -1.2650488987    -2.8283211535
O    -7.9558657042    -2.0166271298    -6.1554797970
O    -5.4966420648     5.7839212995     2.7900784159
C    -7.3360364432    -2.6641960348    -7.2387903478
H    -6.9722270123    -3.6584566763    -6.9592253038
H    -8.1062209224    -2.7653693145    -8.0018628501
H    -6.5060812162    -2.0732686337    -7.6401542193
C    -4.4233407222     6.5214398353     3.3206261055
H    -3.6879694844     6.7740578420     2.5496338913
H    -4.8609428130     7.4380065244     3.7134688031
H    -3.9259502518     5.9814378300     4.1328796973
C     0.7849897237     7.8480355757    -1.4310170644
H     0.7565362746     8.9198732330    -1.6222024021
H     0.3067884412     7.3200498709    -2.2627967808
H     0.2418294474     7.6314285176    -0.5052031493
C    10.7675924408    -0.9738940267    -4.1530662244
H    11.7456659379    -1.4314916417    -4.2939019013
H    10.0618263432    -1.4029112521    -4.8721610500
H    10.8465393560     0.1052449216    -4.3214799931
