114
-186.68219436
C    -1.9354372535    -4.7394224921     0.7294994926
C    -0.6118873447    -4.3782969994     1.0966083190
C    -0.3283389779    -3.0089054578     1.3666962708
C    -1.3181211158    -2.0717616900     1.1878040233
C    -2.6193131254    -2.4089009044     0.7516423830
C    -2.9111268927    -3.7380088756     0.5641520599
C     1.0172197881    -2.5598469537     1.7777404598
C     1.6673325686    -3.1180746982     2.9154457071
C     3.0126257388    -2.7574897915     3.1872307406
C     3.6594208464    -1.8257269621     2.3516497859
C     2.9955676169    -1.2092735359     1.3235198277
C     1.6613005242    -1.5818964682     1.0492019990
C    -2.2350612168    -6.0981853599     0.4924249676
C    -1.2638085836    -7.0551227576     0.5753600326
C     0.0557954636    -6.6899524431     0.8795102120
C     0.3759176545    -5.3845566621     1.1317943142
C     1.0084517025    -3.9877603670     3.8102900395
C     1.6640700590    -4.5091610031     4.8910074052
C     3.0085914326    -4.1901511906     5.1315346662
C     3.6655226939    -3.3274304973     4.3003629905
C    -3.5812836052    -1.3449029256     0.4291862181
C    -4.3043419916    -1.4230095609    -0.7569759974
C    -5.1686365309    -0.4011524339    -1.1345931262
C    -5.2886783495     0.7174735047    -0.3153599114
C    -4.5711296820     0.8145323296     0.8711810186
C    -3.7354429394    -0.2322564014     1.2471132605
C     3.6584513910    -0.1842321000     0.4895978658
C     3.2955959080     1.1492002579     0.6073637710
C     3.9277146343     2.1222975769    -0.1628862819
C     4.9184097725     1.7310682468    -1.0582900556
C     5.2925818756     0.3976309786    -1.1861902520
C     4.6586402845    -0.5574245653    -0.3967475029
O    -1.0136038370    -0.7341180717     1.4131122327
O     1.0329656570    -0.9854298401    -0.0344889396
P    -0.2058794405    -0.0045482881     0.2537921250
O     0.0793564464     1.3890257179     0.5663240629
O    -1.0388246586    -0.2260883136    -1.0824624546
H    -3.9072134969    -4.0276238939     0.2628096271
H     4.6885328280    -1.5645910107     2.5513060925
H    -3.2495919074    -6.3634368556     0.2320950011
H    -1.5005580836    -8.0926410043     0.3917071323
H     0.8230740346    -7.4492044568     0.9099174848
H     1.3964584729    -5.1131843095     1.3527586828
H    -0.0296592789    -4.2288225600     3.6398256263
H     1.1453239894    -5.1690043559     5.5704686501
H     3.5133094656    -4.6195010478     5.9842514617
H     4.6941286931    -3.0555260978     4.4880831689
H    -4.1849102849    -2.2853672608    -1.3955571675
H    -5.9125849292     1.5421991877    -0.6274627157
H    -3.2169188921    -0.1806472013     2.1913483006
H     2.5312252569     1.4327449529     1.3132833654
H     5.3800142179     2.4711625660    -1.6952923967
H     4.9486905542    -1.5958718105    -0.4654212425
H    -1.1579136611     0.6101383403    -1.5295714555
C    -5.9227556102    -0.4899098353    -2.3935179400
C    -5.3315472595    -1.0006398445    -3.5494845545
C    -7.2442995351    -0.0654457254    -2.4662244211
C    -6.0372695484    -1.0794136780    -4.7287536429
H    -4.2995226560    -1.3178635966    -3.5253788585
C    -7.9652005763    -0.1462682980    -3.6444399072
H    -7.7302988505     0.3173624982    -1.5806870427
C    -7.3657244975    -0.6546631208    -4.7911118142
H    -5.5819313780    -1.4663493627    -5.6268470936
H    -8.9910930242     0.1874682523    -3.6538917674
C    -4.6512137693     2.0220812630     1.7046709203
C    -5.8685476327     2.6524377155     1.9575858368
C    -3.4947024011     2.5718153595     2.2477615310
C    -5.9265511706     3.7869430780     2.7360151024
H    -6.7800710188     2.2341865507     1.5563329645
C    -3.5425385264     3.7165907469     3.0231411582
H    -2.5374022436     2.1150972290     2.0406443102
C    -4.7622235186     4.3337709315     3.2780968325
H    -6.8660017862     4.2746555933     2.9440568634
H    -2.6217630498     4.1161450541     3.4180006570
C     6.3369914186     0.0020520291    -2.1421213573
C     7.4792583128     0.7747819105    -2.3158653306
C     6.2080646348    -1.1596346318    -2.9039062958
C     8.4673918089     0.4123665275    -3.2141386664
H     7.6130321819     1.6685656936    -1.7241605192
C     7.1816785446    -1.5264508221    -3.8053747639
H     5.3215276469    -1.7677083314    -2.8020206330
C     8.3258601730    -0.7443991203    -3.9717389291
H     9.3409221616     1.0381298724    -3.3114177913
H     7.0817353595    -2.4192615382    -4.4025904762
C     3.5562417491     3.5375945114    -0.0269028965
C     2.2333844165     3.9111182393     0.1884627366
C     4.5218865955     4.5420252391    -0.1028639251
C     1.8776280806     5.2420722966     0.3179730205
H     1.4645564230     3.1563049103     0.2426279974
C     4.1769810227     5.8682488362     0.0323614866
H     5.5597296416     4.2787016982    -0.2449555323
C     2.8471974913     6.2351513410     0.2422884403
H     0.8392433426     5.4876781406     0.4768424256
H     4.9219243291     6.6471376669    -0.0168083143
O     2.6114149487     7.5748889374     0.3607612581
O     9.2280956405    -1.1974407693    -4.8881878827
O    -4.9292423521     5.4595005048     4.0294778377
O    -7.9732206207    -0.7791554330    -6.0043353666
C    -3.7941978331     6.0523634599     4.6102485624
H    -3.2927958236     5.3691254403     5.3034721505
H    -3.0803211290     6.3857577268     3.8497539102
H    -4.1620762331     6.9169107062     5.1608433533
C    -9.3091686527    -0.3599315002    -6.1333649328
H    -9.5786909895    -0.5487894474    -7.1713552364
H    -9.9756491548    -0.9305491527    -5.4781751070
H    -9.4182202690     0.7087258271    -5.9209493946
C     1.2928689667     8.0035861304     0.5905327776
H     1.3427810603     9.0894771812     0.6582517418
H     0.6280089622     7.7232969004    -0.2332827509
H     0.8963824791     7.6009551151     1.5286259794
C    10.3927903864    -0.4429407074    -5.1131530382
H    10.9493824952    -0.9805000928    -5.8793822549
H    10.1573061463     0.5626988356    -5.4769765371
H    11.0054668370    -0.3676295262    -4.2085893575
