114
-186.68218181
C    -1.9658592172    -4.6902712920     0.7112386909
C    -0.6375926267    -4.3344569953     1.0659087391
C    -0.3494650062    -2.9680533019     1.3458590924
C    -1.3386795000    -2.0274629056     1.1829972323
C    -2.6455097808    -2.3581539067     0.7579505687
C    -2.9417222914    -3.6860318429     0.5662981142
C     0.9986638534    -2.5269408328     1.7570341681
C     1.6484522607    -3.1040984535     2.8857376288
C     2.9966065715    -2.7554065989     3.1582776727
C     3.6452001291    -1.8147037498     2.3345741260
C     2.9818356628    -1.1786053900     1.3177107253
C     1.6450305871    -1.5414259632     1.0406480622
C    -2.2704404290    -6.0465422740     0.4660797530
C    -1.2996220574    -7.0054540466     0.5285839819
C     0.0241800522    -6.6447998696     0.8197590023
C     0.3491771911    -5.3422139180     1.0801745287
C     0.9875829219    -3.9827594558     3.7702823956
C     1.6444317033    -4.5251405730     4.8398914932
C     2.9920703064    -4.2188247473     5.0794465599
C     3.6507216869    -3.3467239057     4.2595306644
C    -3.6109817174    -1.2926036160     0.4517643827
C    -4.3667398326    -1.3781369091    -0.7137844850
C    -5.2408318231    -0.3588242477    -1.0748230055
C    -5.3335960666     0.7690464802    -0.2646917989
C    -4.5804675150     0.8759482802     0.8986546634
C    -3.7405576457    -0.1717988703     1.2629984199
C     3.6553559682    -0.1489350562     0.4989360369
C     3.2754016832     1.1815909033     0.5952606426
C     3.9254560402     2.1568877075    -0.1576254268
C     4.9511378166     1.7701772682    -1.0150962704
C     5.3428616500     0.4399634675    -1.1210454702
C     4.6911225788    -0.5165389896    -0.3485069065
O    -1.0270089000    -0.6928554623     1.4150424576
O     1.0190178856    -0.9308503571    -0.0367044883
P    -0.2267917907     0.0397140435     0.2520603374
O     0.0458883542     1.4368118244     0.5595600085
O    -1.0585756084    -0.1916978187    -1.0838506356
H    -3.9423456014    -3.9725810538     0.2774049236
H     4.6762254330    -1.5617153041     2.5349420799
H    -3.2885159260    -6.3081358449     0.2160341225
H    -1.5401376286    -8.0410180432     0.3388191390
H     0.7906137769    -7.4054023228     0.8340436246
H     1.3726372735    -5.0740454105     1.2914521587
H    -0.0529535503    -4.2141864395     3.6014482038
H     1.1241347223    -5.1919328942     5.5113205322
H     3.4977195870    -4.6651204744     5.9228436171
H     4.6816311093    -3.0837625614     4.4473036889
H    -4.2670190407    -2.2456074532    -1.3488793350
H    -5.9649062584     1.5916568931    -0.5671682444
H    -3.1997774371    -0.1134485166     2.1940889884
H     2.4849463148     1.4617374635     1.2731958429
H     5.4287921674     2.5103800438    -1.6398846292
H     4.9942451587    -1.5523407457    -0.3997024264
H    -1.2180770885     0.6481747264    -1.5112592918
C    -6.0362994794    -0.4593710450    -2.3072552765
C    -5.4856170877    -0.9729312301    -3.4756386608
C    -7.3663784639    -0.0396860741    -2.3360285488
C    -6.2254986058    -1.0677025789    -4.6410700940
H    -4.4515806104    -1.2857612101    -3.4850393995
C    -8.1140096810    -0.1365062294    -3.4877700336
H    -7.8226556491     0.3469570783    -1.4369131709
C    -7.5516461760    -0.6508814231    -4.6575310580
H    -5.7557848750    -1.4645685287    -5.5275954948
H    -9.1450665707     0.1793680811    -3.5125164602
C    -4.6252797629     2.0942253796     1.7190373774
C    -3.4471862555     2.6386524583     2.2197939629
C    -5.8279398578     2.7407025595     1.9998850208
C    -3.4598431313     3.7933749147     2.9815316429
H    -2.5008593584     2.1699405332     1.9901918507
C    -5.8506376834     3.8853068096     2.7653021698
H    -6.7554028239     2.3276378022     1.6311882705
C    -4.6649701284     4.4263180273     3.2654970936
H    -2.5233143710     4.1878589184     3.3429755094
H    -6.7783361454     4.3855973465     2.9949501370
C     6.4253548573     0.0499881893    -2.0360479795
C     7.5718220577     0.8337156252    -2.1680681818
C     6.3341180747    -1.1096303893    -2.7970126599
C     8.5848375327     0.4674037600    -3.0252855927
H     7.6763241787     1.7297325776    -1.5745466313
C     7.3426763864    -1.4837018978    -3.6673562059
H     5.4480748251    -1.7236389746    -2.7271823687
C     8.4817659590    -0.6964846343    -3.7889930570
H     9.4761124313     1.0668118582    -3.1250837574
H     7.2259467713    -2.3871707198    -4.2455865424
C     3.5378406032     3.5699205890    -0.0440835869
C     2.2069938965     3.9343963658     0.1348163277
C     4.4960667330     4.5826100209    -0.1072772290
C     1.8362125877     5.2634400210     0.2393037364
H     1.4431127812     3.1742787802     0.1810634703
C     4.1360498381     5.9070848471     0.0027139385
H     5.5396513336     4.3279546394    -0.2194298203
C     2.7981804028     6.2645689859     0.1742655581
H     0.7920718478     5.5009855386     0.3703666884
H     4.8751915302     6.6919471071    -0.0375877101
O     2.5473105815     7.6033443179     0.2684779552
O     9.5371532231    -0.9652914841    -4.6094096992
O    -4.7973713015     5.5624995003     4.0077774457
O    -8.3754646547    -0.6996068488    -5.7416778404
C    -3.6395668680     6.1468214332     4.5511421518
H    -3.1269852268     5.4636331636     5.2361861078
H    -2.9433772465     6.4649568706     3.7680497183
H    -3.9816037497     7.0205289152     5.1039132061
C    -7.8687012052    -1.2128494871    -6.9487034614
H    -8.6908449223    -1.1585643828    -7.6606226103
H    -7.0298748322    -0.6149607181    -7.3201868427
H    -7.5522551195    -2.2556819292    -6.8417177387
C     1.2196475277     8.0227597690     0.4596589792
H     0.5778230158     7.7246702534    -0.3760918457
H     0.8038161150     7.6296170018     1.3933894741
H     1.2579527785     9.1099115353     0.5130491154
C     9.4914299480    -2.1240929420    -5.4039429032
H     8.6487462710    -2.1004736193    -6.1029538584
H    10.4238056958    -2.1334048572    -5.9664525918
H     9.4301925869    -3.0302813051    -4.7920935865
